data_CHA.cif



_cell_length_a		28.377
_cell_length_b		28.377
_cell_length_c		28.377
_cell_angle_alpha		94.07
_cell_angle_beta		94.07
_cell_angle_gamma		94.07

_symmetry_space_group_name_H-M	'P 1'
_symmetry_Int_Tables_number	1
_symmetry_cell_setting	triclinic

loop_
_symmetry_equiv_pos_as_xyz
x,y,z

loop_
_atom_site_label
_atom_site_type_symbol
_atom_site_fract_x
_atom_site_fract_y
_atom_site_fract_z
Siz_1	Si	0.0344333	0.111033	0.291433
Oz_2	O	0.0888333	0.2445	0.0
Oz_3	O	0.0502	0.283133	0.166667
Oz_4	O	0.0834333	0.0834333	0.297667
Oz_5	O	0.0068	0.0068	0.106433
Siz_6	Si	0.291433	0.0344333	0.111033
Oz_7	O	0.0	0.0888333	0.2445
Oz_8	O	0.166667	0.0502	0.283133
Oz_9	O	0.297667	0.0834333	0.0834333
Oz_10	O	0.106433	0.0068	0.0068
Siz_11	Si	0.111033	0.291433	0.0344333
Oz_12	O	0.2445	0.0	0.0888333
Oz_13	O	0.283133	0.166667	0.0502
Oz_14	O	0.0834333	0.297667	0.0834333
Oz_15	O	0.0068	0.106433	0.0068
Siz_16	Si	0.2223	0.2989	0.0419
Oz_17	O	0.2499	0.2499	0.0356667
Oz_18	O	0.326533	0.326533	0.2269
Siz_19	Si	0.2989	0.0419	0.2223
Oz_20	O	0.2499	0.0356667	0.2499
Oz_21	O	0.326533	0.2269	0.326533
Siz_22	Si	0.0419	0.2223	0.2989
Oz_23	O	0.0356667	0.2499	0.2499
Oz_24	O	0.2269	0.326533	0.326533
Siz_25	Si	0.2989	0.2223	0.0419
Oz_26	O	0.2445	0.0888333	0.0
Oz_27	O	0.283133	0.0502	0.166667
Siz_28	Si	0.0419	0.2989	0.2223
Oz_29	O	0.0	0.2445	0.0888333
Oz_30	O	0.166667	0.283133	0.0502
Siz_31	Si	0.2223	0.0419	0.2989
Oz_32	O	0.0888333	0.0	0.2445
Oz_33	O	0.0502	0.166667	0.283133
Siz_34	Si	0.111033	0.0344333	0.291433
Siz_35	Si	0.0344333	0.291433	0.111033
Siz_36	Si	0.291433	0.111033	0.0344333
Siz_37	Si	0.367767	0.111033	0.291433
Oz_38	O	0.422167	0.2445	0.0
Oz_39	O	0.383533	0.283133	0.166667
Oz_40	O	0.416767	0.0834333	0.297667
Oz_41	O	0.340133	0.0068	0.106433
Siz_42	Si	0.624767	0.0344333	0.111033
Oz_43	O	0.333333	0.0888333	0.2445
Oz_44	O	0.5	0.0502	0.283133
Oz_45	O	0.631	0.0834333	0.0834333
Oz_46	O	0.439767	0.0068	0.0068
Siz_47	Si	0.444367	0.291433	0.0344333
Oz_48	O	0.577833	0.0	0.0888333
Oz_49	O	0.616467	0.166667	0.0502
Oz_50	O	0.416767	0.297667	0.0834333
Oz_51	O	0.340133	0.106433	0.0068
Siz_52	Si	0.555633	0.2989	0.0419
Oz_53	O	0.583233	0.2499	0.0356667
Oz_54	O	0.659867	0.326533	0.2269
Siz_55	Si	0.632233	0.0419	0.2223
Oz_56	O	0.583233	0.0356667	0.2499
Oz_57	O	0.659867	0.2269	0.326533
Siz_58	Si	0.375233	0.2223	0.2989
Oz_59	O	0.369	0.2499	0.2499
Oz_60	O	0.560233	0.326533	0.326533
Siz_61	Si	0.632233	0.2223	0.0419
Oz_62	O	0.577833	0.0888333	0.0
Oz_63	O	0.616467	0.0502	0.166667
Siz_64	Si	0.375233	0.2989	0.2223
Oz_65	O	0.333333	0.2445	0.0888333
Oz_66	O	0.5	0.283133	0.0502
Siz_67	Si	0.555633	0.0419	0.2989
Oz_68	O	0.422167	0.0	0.2445
Oz_69	O	0.383533	0.166667	0.283133
Siz_70	Si	0.444367	0.0344333	0.291433
Siz_71	Si	0.367767	0.291433	0.111033
Siz_72	Si	0.624767	0.111033	0.0344333
Siz_73	Si	0.7011	0.111033	0.291433
Oz_74	O	0.7555	0.2445	0.0
Oz_75	O	0.716867	0.283133	0.166667
Oz_76	O	0.7501	0.0834333	0.297667
Oz_77	O	0.673467	0.0068	0.106433
Siz_78	Si	0.9581	0.0344333	0.111033
Oz_79	O	0.666667	0.0888333	0.2445
Oz_80	O	0.833333	0.0502	0.283133
Oz_81	O	0.964333	0.0834333	0.0834333
Oz_82	O	0.7731	0.0068	0.0068
Siz_83	Si	0.7777	0.291433	0.0344333
Oz_84	O	0.911167	0.0	0.0888333
Oz_85	O	0.9498	0.166667	0.0502
Oz_86	O	0.7501	0.297667	0.0834333
Oz_87	O	0.673467	0.106433	0.0068
Siz_88	Si	0.888967	0.2989	0.0419
Oz_89	O	0.916567	0.2499	0.0356667
Oz_90	O	0.9932	0.326533	0.2269
Siz_91	Si	0.965567	0.0419	0.2223
Oz_92	O	0.916567	0.0356667	0.2499
Oz_93	O	0.9932	0.2269	0.326533
Siz_94	Si	0.708567	0.2223	0.2989
Oz_95	O	0.702333	0.2499	0.2499
Oz_96	O	0.893567	0.326533	0.326533
Siz_97	Si	0.965567	0.2223	0.0419
Oz_98	O	0.911167	0.0888333	0.0
Oz_99	O	0.9498	0.0502	0.166667
Siz_100	Si	0.708567	0.2989	0.2223
Oz_101	O	0.666667	0.2445	0.0888333
Oz_102	O	0.833333	0.283133	0.0502
Siz_103	Si	0.888967	0.0419	0.2989
Oz_104	O	0.7555	0.0	0.2445
Oz_105	O	0.716867	0.166667	0.283133
Siz_106	Si	0.7777	0.0344333	0.291433
Siz_107	Si	0.7011	0.291433	0.111033
Siz_108	Si	0.9581	0.111033	0.0344333
Siz_109	Si	0.0344333	0.444367	0.291433
Oz_110	O	0.0888333	0.577833	0.0
Oz_111	O	0.0502	0.616467	0.166667
Oz_112	O	0.0834333	0.416767	0.297667
Oz_113	O	0.0068	0.340133	0.106433
Siz_114	Si	0.291433	0.367767	0.111033
Oz_115	O	0.0	0.422167	0.2445
Oz_116	O	0.166667	0.383533	0.283133
Oz_117	O	0.297667	0.416767	0.0834333
Oz_118	O	0.106433	0.340133	0.0068
Siz_119	Si	0.111033	0.624767	0.0344333
Oz_120	O	0.2445	0.333333	0.0888333
Oz_121	O	0.283133	0.5	0.0502
Oz_122	O	0.0834333	0.631	0.0834333
Oz_123	O	0.0068	0.439767	0.0068
Siz_124	Si	0.2223	0.632233	0.0419
Oz_125	O	0.2499	0.583233	0.0356667
Oz_126	O	0.326533	0.659867	0.2269
Siz_127	Si	0.2989	0.375233	0.2223
Oz_128	O	0.2499	0.369	0.2499
Oz_129	O	0.326533	0.560233	0.326533
Siz_130	Si	0.0419	0.555633	0.2989
Oz_131	O	0.0356667	0.583233	0.2499
Oz_132	O	0.2269	0.659867	0.326533
Siz_133	Si	0.2989	0.555633	0.0419
Oz_134	O	0.2445	0.422167	0.0
Oz_135	O	0.283133	0.383533	0.166667
Siz_136	Si	0.0419	0.632233	0.2223
Oz_137	O	0.0	0.577833	0.0888333
Oz_138	O	0.166667	0.616467	0.0502
Siz_139	Si	0.2223	0.375233	0.2989
Oz_140	O	0.0888333	0.333333	0.2445
Oz_141	O	0.0502	0.5	0.283133
Siz_142	Si	0.111033	0.367767	0.291433
Siz_143	Si	0.0344333	0.624767	0.111033
Siz_144	Si	0.291433	0.444367	0.0344333
Siz_145	Si	0.367767	0.444367	0.291433
Oz_146	O	0.422167	0.577833	0.0
Oz_147	O	0.383533	0.616467	0.166667
Oz_148	O	0.416767	0.416767	0.297667
Oz_149	O	0.340133	0.340133	0.106433
Siz_150	Si	0.624767	0.367767	0.111033
Oz_151	O	0.333333	0.422167	0.2445
Oz_152	O	0.5	0.383533	0.283133
Oz_153	O	0.631	0.416767	0.0834333
Oz_154	O	0.439767	0.340133	0.0068
Siz_155	Si	0.444367	0.624767	0.0344333
Oz_156	O	0.577833	0.333333	0.0888333
Oz_157	O	0.616467	0.5	0.0502
Oz_158	O	0.416767	0.631	0.0834333
Oz_159	O	0.340133	0.439767	0.0068
Siz_160	Si	0.555633	0.632233	0.0419
Oz_161	O	0.583233	0.583233	0.0356667
Oz_162	O	0.659867	0.659867	0.2269
Siz_163	Si	0.632233	0.375233	0.2223
Oz_164	O	0.583233	0.369	0.2499
Oz_165	O	0.659867	0.560233	0.326533
Siz_166	Si	0.375233	0.555633	0.2989
Oz_167	O	0.369	0.583233	0.2499
Oz_168	O	0.560233	0.659867	0.326533
Siz_169	Si	0.632233	0.555633	0.0419
Oz_170	O	0.577833	0.422167	0.0
Oz_171	O	0.616467	0.383533	0.166667
Siz_172	Si	0.375233	0.632233	0.2223
Oz_173	O	0.333333	0.577833	0.0888333
Oz_174	O	0.5	0.616467	0.0502
Siz_175	Si	0.555633	0.375233	0.2989
Oz_176	O	0.422167	0.333333	0.2445
Oz_177	O	0.383533	0.5	0.283133
Siz_178	Si	0.444367	0.367767	0.291433
Siz_179	Si	0.367767	0.624767	0.111033
Siz_180	Si	0.624767	0.444367	0.0344333
Siz_181	Si	0.7011	0.444367	0.291433
Oz_182	O	0.7555	0.577833	0.0
Oz_183	O	0.716867	0.616467	0.166667
Oz_184	O	0.7501	0.416767	0.297667
Oz_185	O	0.673467	0.340133	0.106433
Siz_186	Si	0.9581	0.367767	0.111033
Oz_187	O	0.666667	0.422167	0.2445
Oz_188	O	0.833333	0.383533	0.283133
Oz_189	O	0.964333	0.416767	0.0834333
Oz_190	O	0.7731	0.340133	0.0068
Siz_191	Si	0.7777	0.624767	0.0344333
Oz_192	O	0.911167	0.333333	0.0888333
Oz_193	O	0.9498	0.5	0.0502
Oz_194	O	0.7501	0.631	0.0834333
Oz_195	O	0.673467	0.439767	0.0068
Siz_196	Si	0.888967	0.632233	0.0419
Oz_197	O	0.916567	0.583233	0.0356667
Oz_198	O	0.9932	0.659867	0.2269
Siz_199	Si	0.965567	0.375233	0.2223
Oz_200	O	0.916567	0.369	0.2499
Oz_201	O	0.9932	0.560233	0.326533
Siz_202	Si	0.708567	0.555633	0.2989
Oz_203	O	0.702333	0.583233	0.2499
Oz_204	O	0.893567	0.659867	0.326533
Siz_205	Si	0.965567	0.555633	0.0419
Oz_206	O	0.911167	0.422167	0.0
Oz_207	O	0.9498	0.383533	0.166667
Siz_208	Si	0.708567	0.632233	0.2223
Oz_209	O	0.666667	0.577833	0.0888333
Oz_210	O	0.833333	0.616467	0.0502
Siz_211	Si	0.888967	0.375233	0.2989
Oz_212	O	0.7555	0.333333	0.2445
Oz_213	O	0.716867	0.5	0.283133
Siz_214	Si	0.7777	0.367767	0.291433
Siz_215	Si	0.7011	0.624767	0.111033
Siz_216	Si	0.9581	0.444367	0.0344333
Siz_217	Si	0.0344333	0.7777	0.291433
Oz_218	O	0.0888333	0.911167	0.0
Oz_219	O	0.0502	0.9498	0.166667
Oz_220	O	0.0834333	0.7501	0.297667
Oz_221	O	0.0068	0.673467	0.106433
Siz_222	Si	0.291433	0.7011	0.111033
Oz_223	O	0.0	0.7555	0.2445
Oz_224	O	0.166667	0.716867	0.283133
Oz_225	O	0.297667	0.7501	0.0834333
Oz_226	O	0.106433	0.673467	0.0068
Siz_227	Si	0.111033	0.9581	0.0344333
Oz_228	O	0.2445	0.666667	0.0888333
Oz_229	O	0.283133	0.833333	0.0502
Oz_230	O	0.0834333	0.964333	0.0834333
Oz_231	O	0.0068	0.7731	0.0068
Siz_232	Si	0.2223	0.965567	0.0419
Oz_233	O	0.2499	0.916567	0.0356667
Oz_234	O	0.326533	0.9932	0.2269
Siz_235	Si	0.2989	0.708567	0.2223
Oz_236	O	0.2499	0.702333	0.2499
Oz_237	O	0.326533	0.893567	0.326533
Siz_238	Si	0.0419	0.888967	0.2989
Oz_239	O	0.0356667	0.916567	0.2499
Oz_240	O	0.2269	0.9932	0.326533
Siz_241	Si	0.2989	0.888967	0.0419
Oz_242	O	0.2445	0.7555	0.0
Oz_243	O	0.283133	0.716867	0.166667
Siz_244	Si	0.0419	0.965567	0.2223
Oz_245	O	0.0	0.911167	0.0888333
Oz_246	O	0.166667	0.9498	0.0502
Siz_247	Si	0.2223	0.708567	0.2989
Oz_248	O	0.0888333	0.666667	0.2445
Oz_249	O	0.0502	0.833333	0.283133
Siz_250	Si	0.111033	0.7011	0.291433
Siz_251	Si	0.0344333	0.9581	0.111033
Siz_252	Si	0.291433	0.7777	0.0344333
Siz_253	Si	0.367767	0.7777	0.291433
Oz_254	O	0.422167	0.911167	0.0
Oz_255	O	0.383533	0.9498	0.166667
Oz_256	O	0.416767	0.7501	0.297667
Oz_257	O	0.340133	0.673467	0.106433
Siz_258	Si	0.624767	0.7011	0.111033
Oz_259	O	0.333333	0.7555	0.2445
Oz_260	O	0.5	0.716867	0.283133
Oz_261	O	0.631	0.7501	0.0834333
Oz_262	O	0.439767	0.673467	0.0068
Siz_263	Si	0.444367	0.9581	0.0344333
Oz_264	O	0.577833	0.666667	0.0888333
Oz_265	O	0.616467	0.833333	0.0502
Oz_266	O	0.416767	0.964333	0.0834333
Oz_267	O	0.340133	0.7731	0.0068
Siz_268	Si	0.555633	0.965567	0.0419
Oz_269	O	0.583233	0.916567	0.0356667
Oz_270	O	0.659867	0.9932	0.2269
Siz_271	Si	0.632233	0.708567	0.2223
Oz_272	O	0.583233	0.702333	0.2499
Oz_273	O	0.659867	0.893567	0.326533
Siz_274	Si	0.375233	0.888967	0.2989
Oz_275	O	0.369	0.916567	0.2499
Oz_276	O	0.560233	0.9932	0.326533
Siz_277	Si	0.632233	0.888967	0.0419
Oz_278	O	0.577833	0.7555	0.0
Oz_279	O	0.616467	0.716867	0.166667
Siz_280	Si	0.375233	0.965567	0.2223
Oz_281	O	0.333333	0.911167	0.0888333
Oz_282	O	0.5	0.9498	0.0502
Siz_283	Si	0.555633	0.708567	0.2989
Oz_284	O	0.422167	0.666667	0.2445
Oz_285	O	0.383533	0.833333	0.283133
Siz_286	Si	0.444367	0.7011	0.291433
Siz_287	Si	0.367767	0.9581	0.111033
Siz_288	Si	0.624767	0.7777	0.0344333
Siz_289	Si	0.7011	0.7777	0.291433
Oz_290	O	0.7555	0.911167	0.0
Oz_291	O	0.716867	0.9498	0.166667
Oz_292	O	0.7501	0.7501	0.297667
Oz_293	O	0.673467	0.673467	0.106433
Siz_294	Si	0.9581	0.7011	0.111033
Oz_295	O	0.666667	0.7555	0.2445
Oz_296	O	0.833333	0.716867	0.283133
Oz_297	O	0.964333	0.7501	0.0834333
Oz_298	O	0.7731	0.673467	0.0068
Siz_299	Si	0.7777	0.9581	0.0344333
Oz_300	O	0.911167	0.666667	0.0888333
Oz_301	O	0.9498	0.833333	0.0502
Oz_302	O	0.7501	0.964333	0.0834333
Oz_303	O	0.673467	0.7731	0.0068
Siz_304	Si	0.888967	0.965567	0.0419
Oz_305	O	0.916567	0.916567	0.0356667
Oz_306	O	0.9932	0.9932	0.2269
Siz_307	Si	0.965567	0.708567	0.2223
Oz_308	O	0.916567	0.702333	0.2499
Oz_309	O	0.9932	0.893567	0.326533
Siz_310	Si	0.708567	0.888967	0.2989
Oz_311	O	0.702333	0.916567	0.2499
Oz_312	O	0.893567	0.9932	0.326533
Siz_313	Si	0.965567	0.888967	0.0419
Oz_314	O	0.911167	0.7555	0.0
Oz_315	O	0.9498	0.716867	0.166667
Siz_316	Si	0.708567	0.965567	0.2223
Oz_317	O	0.666667	0.911167	0.0888333
Oz_318	O	0.833333	0.9498	0.0502
Siz_319	Si	0.888967	0.708567	0.2989
Oz_320	O	0.7555	0.666667	0.2445
Oz_321	O	0.716867	0.833333	0.283133
Siz_322	Si	0.7777	0.7011	0.291433
Siz_323	Si	0.7011	0.9581	0.111033
Siz_324	Si	0.9581	0.7777	0.0344333
Siz_325	Si	0.0344333	0.111033	0.624767
Oz_326	O	0.0888333	0.2445	0.333333
Oz_327	O	0.0502	0.283133	0.5
Oz_328	O	0.0834333	0.0834333	0.631
Oz_329	O	0.0068	0.0068	0.439767
Siz_330	Si	0.291433	0.0344333	0.444367
Oz_331	O	0.0	0.0888333	0.577833
Oz_332	O	0.166667	0.0502	0.616467
Oz_333	O	0.297667	0.0834333	0.416767
Oz_334	O	0.106433	0.0068	0.340133
Siz_335	Si	0.111033	0.291433	0.367767
Oz_336	O	0.2445	0.0	0.422167
Oz_337	O	0.283133	0.166667	0.383533
Oz_338	O	0.0834333	0.297667	0.416767
Oz_339	O	0.0068	0.106433	0.340133
Siz_340	Si	0.2223	0.2989	0.375233
Oz_341	O	0.2499	0.2499	0.369
Oz_342	O	0.326533	0.326533	0.560233
Siz_343	Si	0.2989	0.0419	0.555633
Oz_344	O	0.2499	0.0356667	0.583233
Oz_345	O	0.326533	0.2269	0.659867
Siz_346	Si	0.0419	0.2223	0.632233
Oz_347	O	0.0356667	0.2499	0.583233
Oz_348	O	0.2269	0.326533	0.659867
Siz_349	Si	0.2989	0.2223	0.375233
Oz_350	O	0.2445	0.0888333	0.333333
Oz_351	O	0.283133	0.0502	0.5
Siz_352	Si	0.0419	0.2989	0.555633
Oz_353	O	0.0	0.2445	0.422167
Oz_354	O	0.166667	0.283133	0.383533
Siz_355	Si	0.2223	0.0419	0.632233
Oz_356	O	0.0888333	0.0	0.577833
Oz_357	O	0.0502	0.166667	0.616467
Siz_358	Si	0.111033	0.0344333	0.624767
Siz_359	Si	0.0344333	0.291433	0.444367
Siz_360	Si	0.291433	0.111033	0.367767
Siz_361	Si	0.367767	0.111033	0.624767
Oz_362	O	0.422167	0.2445	0.333333
Oz_363	O	0.383533	0.283133	0.5
Oz_364	O	0.416767	0.0834333	0.631
Oz_365	O	0.340133	0.0068	0.439767
Siz_366	Si	0.624767	0.0344333	0.444367
Oz_367	O	0.333333	0.0888333	0.577833
Oz_368	O	0.5	0.0502	0.616467
Oz_369	O	0.631	0.0834333	0.416767
Oz_370	O	0.439767	0.0068	0.340133
Siz_371	Si	0.444367	0.291433	0.367767
Oz_372	O	0.577833	0.0	0.422167
Oz_373	O	0.616467	0.166667	0.383533
Oz_374	O	0.416767	0.297667	0.416767
Oz_375	O	0.340133	0.106433	0.340133
Siz_376	Si	0.555633	0.2989	0.375233
Oz_377	O	0.583233	0.2499	0.369
Oz_378	O	0.659867	0.326533	0.560233
Siz_379	Si	0.632233	0.0419	0.555633
Oz_380	O	0.583233	0.0356667	0.583233
Oz_381	O	0.659867	0.2269	0.659867
Siz_382	Si	0.375233	0.2223	0.632233
Oz_383	O	0.369	0.2499	0.583233
Oz_384	O	0.560233	0.326533	0.659867
Siz_385	Si	0.632233	0.2223	0.375233
Oz_386	O	0.577833	0.0888333	0.333333
Oz_387	O	0.616467	0.0502	0.5
Siz_388	Si	0.375233	0.2989	0.555633
Oz_389	O	0.333333	0.2445	0.422167
Oz_390	O	0.5	0.283133	0.383533
Siz_391	Si	0.555633	0.0419	0.632233
Oz_392	O	0.422167	0.0	0.577833
Oz_393	O	0.383533	0.166667	0.616467
Siz_394	Si	0.444367	0.0344333	0.624767
Siz_395	Si	0.367767	0.291433	0.444367
Siz_396	Si	0.624767	0.111033	0.367767
Siz_397	Si	0.7011	0.111033	0.624767
Oz_398	O	0.7555	0.2445	0.333333
Oz_399	O	0.716867	0.283133	0.5
Oz_400	O	0.7501	0.0834333	0.631
Oz_401	O	0.673467	0.0068	0.439767
Siz_402	Si	0.9581	0.0344333	0.444367
Oz_403	O	0.666667	0.0888333	0.577833
Oz_404	O	0.833333	0.0502	0.616467
Oz_405	O	0.964333	0.0834333	0.416767
Oz_406	O	0.7731	0.0068	0.340133
Siz_407	Si	0.7777	0.291433	0.367767
Oz_408	O	0.911167	0.0	0.422167
Oz_409	O	0.9498	0.166667	0.383533
Oz_410	O	0.7501	0.297667	0.416767
Oz_411	O	0.673467	0.106433	0.340133
Siz_412	Si	0.888967	0.2989	0.375233
Oz_413	O	0.916567	0.2499	0.369
Oz_414	O	0.9932	0.326533	0.560233
Siz_415	Si	0.965567	0.0419	0.555633
Oz_416	O	0.916567	0.0356667	0.583233
Oz_417	O	0.9932	0.2269	0.659867
Siz_418	Si	0.708567	0.2223	0.632233
Oz_419	O	0.702333	0.2499	0.583233
Oz_420	O	0.893567	0.326533	0.659867
Siz_421	Si	0.965567	0.2223	0.375233
Oz_422	O	0.911167	0.0888333	0.333333
Oz_423	O	0.9498	0.0502	0.5
Siz_424	Si	0.708567	0.2989	0.555633
Oz_425	O	0.666667	0.2445	0.422167
Oz_426	O	0.833333	0.283133	0.383533
Siz_427	Si	0.888967	0.0419	0.632233
Oz_428	O	0.7555	0.0	0.577833
Oz_429	O	0.716867	0.166667	0.616467
Siz_430	Si	0.7777	0.0344333	0.624767
Siz_431	Si	0.7011	0.291433	0.444367
Siz_432	Si	0.9581	0.111033	0.367767
Siz_433	Si	0.0344333	0.444367	0.624767
Oz_434	O	0.0888333	0.577833	0.333333
Oz_435	O	0.0502	0.616467	0.5
Oz_436	O	0.0834333	0.416767	0.631
Oz_437	O	0.0068	0.340133	0.439767
Siz_438	Si	0.291433	0.367767	0.444367
Oz_439	O	0.0	0.422167	0.577833
Oz_440	O	0.166667	0.383533	0.616467
Oz_441	O	0.297667	0.416767	0.416767
Oz_442	O	0.106433	0.340133	0.340133
Siz_443	Si	0.111033	0.624767	0.367767
Oz_444	O	0.2445	0.333333	0.422167
Oz_445	O	0.283133	0.5	0.383533
Oz_446	O	0.0834333	0.631	0.416767
Oz_447	O	0.0068	0.439767	0.340133
Siz_448	Si	0.2223	0.632233	0.375233
Oz_449	O	0.2499	0.583233	0.369
Oz_450	O	0.326533	0.659867	0.560233
Siz_451	Si	0.2989	0.375233	0.555633
Oz_452	O	0.2499	0.369	0.583233
Oz_453	O	0.326533	0.560233	0.659867
Siz_454	Si	0.0419	0.555633	0.632233
Oz_455	O	0.0356667	0.583233	0.583233
Oz_456	O	0.2269	0.659867	0.659867
Siz_457	Si	0.2989	0.555633	0.375233
Oz_458	O	0.2445	0.422167	0.333333
Oz_459	O	0.283133	0.383533	0.5
Siz_460	Si	0.0419	0.632233	0.555633
Oz_461	O	0.0	0.577833	0.422167
Oz_462	O	0.166667	0.616467	0.383533
Siz_463	Si	0.2223	0.375233	0.632233
Oz_464	O	0.0888333	0.333333	0.577833
Oz_465	O	0.0502	0.5	0.616467
Siz_466	Si	0.111033	0.367767	0.624767
Siz_467	Si	0.0344333	0.624767	0.444367
Siz_468	Si	0.291433	0.444367	0.367767
Siz_469	Si	0.367767	0.444367	0.624767
Oz_470	O	0.422167	0.577833	0.333333
Oz_471	O	0.383533	0.616467	0.5
Oz_472	O	0.416767	0.416767	0.631
Oz_473	O	0.340133	0.340133	0.439767
Siz_474	Si	0.624767	0.367767	0.444367
Oz_475	O	0.333333	0.422167	0.577833
Oz_476	O	0.5	0.383533	0.616467
Oz_477	O	0.631	0.416767	0.416767
Oz_478	O	0.439767	0.340133	0.340133
Siz_479	Si	0.444367	0.624767	0.367767
Oz_480	O	0.577833	0.333333	0.422167
Oz_481	O	0.616467	0.5	0.383533
Oz_482	O	0.416767	0.631	0.416767
Oz_483	O	0.340133	0.439767	0.340133
Siz_484	Si	0.555633	0.632233	0.375233
Oz_485	O	0.583233	0.583233	0.369
Oz_486	O	0.659867	0.659867	0.560233
Siz_487	Si	0.632233	0.375233	0.555633
Oz_488	O	0.583233	0.369	0.583233
Oz_489	O	0.659867	0.560233	0.659867
Siz_490	Si	0.375233	0.555633	0.632233
Oz_491	O	0.369	0.583233	0.583233
Oz_492	O	0.560233	0.659867	0.659867
Siz_493	Si	0.632233	0.555633	0.375233
Oz_494	O	0.577833	0.422167	0.333333
Oz_495	O	0.616467	0.383533	0.5
Siz_496	Si	0.375233	0.632233	0.555633
Oz_497	O	0.333333	0.577833	0.422167
Oz_498	O	0.5	0.616467	0.383533
Siz_499	Si	0.555633	0.375233	0.632233
Oz_500	O	0.422167	0.333333	0.577833
Oz_501	O	0.383533	0.5	0.616467
Siz_502	Si	0.444367	0.367767	0.624767
Siz_503	Si	0.367767	0.624767	0.444367
Siz_504	Si	0.624767	0.444367	0.367767
Siz_505	Si	0.7011	0.444367	0.624767
Oz_506	O	0.7555	0.577833	0.333333
Oz_507	O	0.716867	0.616467	0.5
Oz_508	O	0.7501	0.416767	0.631
Oz_509	O	0.673467	0.340133	0.439767
Siz_510	Si	0.9581	0.367767	0.444367
Oz_511	O	0.666667	0.422167	0.577833
Oz_512	O	0.833333	0.383533	0.616467
Oz_513	O	0.964333	0.416767	0.416767
Oz_514	O	0.7731	0.340133	0.340133
Siz_515	Si	0.7777	0.624767	0.367767
Oz_516	O	0.911167	0.333333	0.422167
Oz_517	O	0.9498	0.5	0.383533
Oz_518	O	0.7501	0.631	0.416767
Oz_519	O	0.673467	0.439767	0.340133
Siz_520	Si	0.888967	0.632233	0.375233
Oz_521	O	0.916567	0.583233	0.369
Oz_522	O	0.9932	0.659867	0.560233
Siz_523	Si	0.965567	0.375233	0.555633
Oz_524	O	0.916567	0.369	0.583233
Oz_525	O	0.9932	0.560233	0.659867
Siz_526	Si	0.708567	0.555633	0.632233
Oz_527	O	0.702333	0.583233	0.583233
Oz_528	O	0.893567	0.659867	0.659867
Siz_529	Si	0.965567	0.555633	0.375233
Oz_530	O	0.911167	0.422167	0.333333
Oz_531	O	0.9498	0.383533	0.5
Siz_532	Si	0.708567	0.632233	0.555633
Oz_533	O	0.666667	0.577833	0.422167
Oz_534	O	0.833333	0.616467	0.383533
Siz_535	Si	0.888967	0.375233	0.632233
Oz_536	O	0.7555	0.333333	0.577833
Oz_537	O	0.716867	0.5	0.616467
Siz_538	Si	0.7777	0.367767	0.624767
Siz_539	Si	0.7011	0.624767	0.444367
Siz_540	Si	0.9581	0.444367	0.367767
Siz_541	Si	0.0344333	0.7777	0.624767
Oz_542	O	0.0888333	0.911167	0.333333
Oz_543	O	0.0502	0.9498	0.5
Oz_544	O	0.0834333	0.7501	0.631
Oz_545	O	0.0068	0.673467	0.439767
Siz_546	Si	0.291433	0.7011	0.444367
Oz_547	O	0.0	0.7555	0.577833
Oz_548	O	0.166667	0.716867	0.616467
Oz_549	O	0.297667	0.7501	0.416767
Oz_550	O	0.106433	0.673467	0.340133
Siz_551	Si	0.111033	0.9581	0.367767
Oz_552	O	0.2445	0.666667	0.422167
Oz_553	O	0.283133	0.833333	0.383533
Oz_554	O	0.0834333	0.964333	0.416767
Oz_555	O	0.0068	0.7731	0.340133
Siz_556	Si	0.2223	0.965567	0.375233
Oz_557	O	0.2499	0.916567	0.369
Oz_558	O	0.326533	0.9932	0.560233
Siz_559	Si	0.2989	0.708567	0.555633
Oz_560	O	0.2499	0.702333	0.583233
Oz_561	O	0.326533	0.893567	0.659867
Siz_562	Si	0.0419	0.888967	0.632233
Oz_563	O	0.0356667	0.916567	0.583233
Oz_564	O	0.2269	0.9932	0.659867
Siz_565	Si	0.2989	0.888967	0.375233
Oz_566	O	0.2445	0.7555	0.333333
Oz_567	O	0.283133	0.716867	0.5
Siz_568	Si	0.0419	0.965567	0.555633
Oz_569	O	0.0	0.911167	0.422167
Oz_570	O	0.166667	0.9498	0.383533
Siz_571	Si	0.2223	0.708567	0.632233
Oz_572	O	0.0888333	0.666667	0.577833
Oz_573	O	0.0502	0.833333	0.616467
Siz_574	Si	0.111033	0.7011	0.624767
Siz_575	Si	0.0344333	0.9581	0.444367
Siz_576	Si	0.291433	0.7777	0.367767
Siz_577	Si	0.367767	0.7777	0.624767
Oz_578	O	0.422167	0.911167	0.333333
Oz_579	O	0.383533	0.9498	0.5
Oz_580	O	0.416767	0.7501	0.631
Oz_581	O	0.340133	0.673467	0.439767
Siz_582	Si	0.624767	0.7011	0.444367
Oz_583	O	0.333333	0.7555	0.577833
Oz_584	O	0.5	0.716867	0.616467
Oz_585	O	0.631	0.7501	0.416767
Oz_586	O	0.439767	0.673467	0.340133
Siz_587	Si	0.444367	0.9581	0.367767
Oz_588	O	0.577833	0.666667	0.422167
Oz_589	O	0.616467	0.833333	0.383533
Oz_590	O	0.416767	0.964333	0.416767
Oz_591	O	0.340133	0.7731	0.340133
Siz_592	Si	0.555633	0.965567	0.375233
Oz_593	O	0.583233	0.916567	0.369
Oz_594	O	0.659867	0.9932	0.560233
Siz_595	Si	0.632233	0.708567	0.555633
Oz_596	O	0.583233	0.702333	0.583233
Oz_597	O	0.659867	0.893567	0.659867
Siz_598	Si	0.375233	0.888967	0.632233
Oz_599	O	0.369	0.916567	0.583233
Oz_600	O	0.560233	0.9932	0.659867
Siz_601	Si	0.632233	0.888967	0.375233
Oz_602	O	0.577833	0.7555	0.333333
Oz_603	O	0.616467	0.716867	0.5
Siz_604	Si	0.375233	0.965567	0.555633
Oz_605	O	0.333333	0.911167	0.422167
Oz_606	O	0.5	0.9498	0.383533
Siz_607	Si	0.555633	0.708567	0.632233
Oz_608	O	0.422167	0.666667	0.577833
Oz_609	O	0.383533	0.833333	0.616467
Siz_610	Si	0.444367	0.7011	0.624767
Siz_611	Si	0.367767	0.9581	0.444367
Siz_612	Si	0.624767	0.7777	0.367767
Siz_613	Si	0.7011	0.7777	0.624767
Oz_614	O	0.7555	0.911167	0.333333
Oz_615	O	0.716867	0.9498	0.5
Oz_616	O	0.7501	0.7501	0.631
Oz_617	O	0.673467	0.673467	0.439767
Siz_618	Si	0.9581	0.7011	0.444367
Oz_619	O	0.666667	0.7555	0.577833
Oz_620	O	0.833333	0.716867	0.616467
Oz_621	O	0.964333	0.7501	0.416767
Oz_622	O	0.7731	0.673467	0.340133
Siz_623	Si	0.7777	0.9581	0.367767
Oz_624	O	0.911167	0.666667	0.422167
Oz_625	O	0.9498	0.833333	0.383533
Oz_626	O	0.7501	0.964333	0.416767
Oz_627	O	0.673467	0.7731	0.340133
Siz_628	Si	0.888967	0.965567	0.375233
Oz_629	O	0.916567	0.916567	0.369
Oz_630	O	0.9932	0.9932	0.560233
Siz_631	Si	0.965567	0.708567	0.555633
Oz_632	O	0.916567	0.702333	0.583233
Oz_633	O	0.9932	0.893567	0.659867
Siz_634	Si	0.708567	0.888967	0.632233
Oz_635	O	0.702333	0.916567	0.583233
Oz_636	O	0.893567	0.9932	0.659867
Siz_637	Si	0.965567	0.888967	0.375233
Oz_638	O	0.911167	0.7555	0.333333
Oz_639	O	0.9498	0.716867	0.5
Siz_640	Si	0.708567	0.965567	0.555633
Oz_641	O	0.666667	0.911167	0.422167
Oz_642	O	0.833333	0.9498	0.383533
Siz_643	Si	0.888967	0.708567	0.632233
Oz_644	O	0.7555	0.666667	0.577833
Oz_645	O	0.716867	0.833333	0.616467
Siz_646	Si	0.7777	0.7011	0.624767
Siz_647	Si	0.7011	0.9581	0.444367
Siz_648	Si	0.9581	0.7777	0.367767
Siz_649	Si	0.0344333	0.111033	0.9581
Oz_650	O	0.0888333	0.2445	0.666667
Oz_651	O	0.0502	0.283133	0.833333
Oz_652	O	0.0834333	0.0834333	0.964333
Oz_653	O	0.0068	0.0068	0.7731
Siz_654	Si	0.291433	0.0344333	0.7777
Oz_655	O	0.0	0.0888333	0.911167
Oz_656	O	0.166667	0.0502	0.9498
Oz_657	O	0.297667	0.0834333	0.7501
Oz_658	O	0.106433	0.0068	0.673467
Siz_659	Si	0.111033	0.291433	0.7011
Oz_660	O	0.2445	0.0	0.7555
Oz_661	O	0.283133	0.166667	0.716867
Oz_662	O	0.0834333	0.297667	0.7501
Oz_663	O	0.0068	0.106433	0.673467
Siz_664	Si	0.2223	0.2989	0.708567
Oz_665	O	0.2499	0.2499	0.702333
Oz_666	O	0.326533	0.326533	0.893567
Siz_667	Si	0.2989	0.0419	0.888967
Oz_668	O	0.2499	0.0356667	0.916567
Oz_669	O	0.326533	0.2269	0.9932
Siz_670	Si	0.0419	0.2223	0.965567
Oz_671	O	0.0356667	0.2499	0.916567
Oz_672	O	0.2269	0.326533	0.9932
Siz_673	Si	0.2989	0.2223	0.708567
Oz_674	O	0.2445	0.0888333	0.666667
Oz_675	O	0.283133	0.0502	0.833333
Siz_676	Si	0.0419	0.2989	0.888967
Oz_677	O	0.0	0.2445	0.7555
Oz_678	O	0.166667	0.283133	0.716867
Siz_679	Si	0.2223	0.0419	0.965567
Oz_680	O	0.0888333	0.0	0.911167
Oz_681	O	0.0502	0.166667	0.9498
Siz_682	Si	0.111033	0.0344333	0.9581
Siz_683	Si	0.0344333	0.291433	0.7777
Siz_684	Si	0.291433	0.111033	0.7011
Siz_685	Si	0.367767	0.111033	0.9581
Oz_686	O	0.422167	0.2445	0.666667
Oz_687	O	0.383533	0.283133	0.833333
Oz_688	O	0.416767	0.0834333	0.964333
Oz_689	O	0.340133	0.0068	0.7731
Siz_690	Si	0.624767	0.0344333	0.7777
Oz_691	O	0.333333	0.0888333	0.911167
Oz_692	O	0.5	0.0502	0.9498
Oz_693	O	0.631	0.0834333	0.7501
Oz_694	O	0.439767	0.0068	0.673467
Siz_695	Si	0.444367	0.291433	0.7011
Oz_696	O	0.577833	0.0	0.7555
Oz_697	O	0.616467	0.166667	0.716867
Oz_698	O	0.416767	0.297667	0.7501
Oz_699	O	0.340133	0.106433	0.673467
Siz_700	Si	0.555633	0.2989	0.708567
Oz_701	O	0.583233	0.2499	0.702333
Oz_702	O	0.659867	0.326533	0.893567
Siz_703	Si	0.632233	0.0419	0.888967
Oz_704	O	0.583233	0.0356667	0.916567
Oz_705	O	0.659867	0.2269	0.9932
Siz_706	Si	0.375233	0.2223	0.965567
Oz_707	O	0.369	0.2499	0.916567
Oz_708	O	0.560233	0.326533	0.9932
Siz_709	Si	0.632233	0.2223	0.708567
Oz_710	O	0.577833	0.0888333	0.666667
Oz_711	O	0.616467	0.0502	0.833333
Siz_712	Si	0.375233	0.2989	0.888967
Oz_713	O	0.333333	0.2445	0.7555
Oz_714	O	0.5	0.283133	0.716867
Siz_715	Si	0.555633	0.0419	0.965567
Oz_716	O	0.422167	0.0	0.911167
Oz_717	O	0.383533	0.166667	0.9498
Siz_718	Si	0.444367	0.0344333	0.9581
Siz_719	Si	0.367767	0.291433	0.7777
Siz_720	Si	0.624767	0.111033	0.7011
Siz_721	Si	0.7011	0.111033	0.9581
Oz_722	O	0.7555	0.2445	0.666667
Oz_723	O	0.716867	0.283133	0.833333
Oz_724	O	0.7501	0.0834333	0.964333
Oz_725	O	0.673467	0.0068	0.7731
Siz_726	Si	0.9581	0.0344333	0.7777
Oz_727	O	0.666667	0.0888333	0.911167
Oz_728	O	0.833333	0.0502	0.9498
Oz_729	O	0.964333	0.0834333	0.7501
Oz_730	O	0.7731	0.0068	0.673467
Siz_731	Si	0.7777	0.291433	0.7011
Oz_732	O	0.911167	0.0	0.7555
Oz_733	O	0.9498	0.166667	0.716867
Oz_734	O	0.7501	0.297667	0.7501
Oz_735	O	0.673467	0.106433	0.673467
Siz_736	Si	0.888967	0.2989	0.708567
Oz_737	O	0.916567	0.2499	0.702333
Oz_738	O	0.9932	0.326533	0.893567
Siz_739	Si	0.965567	0.0419	0.888967
Oz_740	O	0.916567	0.0356667	0.916567
Oz_741	O	0.9932	0.2269	0.9932
Siz_742	Si	0.708567	0.2223	0.965567
Oz_743	O	0.702333	0.2499	0.916567
Oz_744	O	0.893567	0.326533	0.9932
Siz_745	Si	0.965567	0.2223	0.708567
Oz_746	O	0.911167	0.0888333	0.666667
Oz_747	O	0.9498	0.0502	0.833333
Siz_748	Si	0.708567	0.2989	0.888967
Oz_749	O	0.666667	0.2445	0.7555
Oz_750	O	0.833333	0.283133	0.716867
Siz_751	Si	0.888967	0.0419	0.965567
Oz_752	O	0.7555	0.0	0.911167
Oz_753	O	0.716867	0.166667	0.9498
Siz_754	Si	0.7777	0.0344333	0.9581
Siz_755	Si	0.7011	0.291433	0.7777
Siz_756	Si	0.9581	0.111033	0.7011
Siz_757	Si	0.0344333	0.444367	0.9581
Oz_758	O	0.0888333	0.577833	0.666667
Oz_759	O	0.0502	0.616467	0.833333
Oz_760	O	0.0834333	0.416767	0.964333
Oz_761	O	0.0068	0.340133	0.7731
Siz_762	Si	0.291433	0.367767	0.7777
Oz_763	O	0.0	0.422167	0.911167
Oz_764	O	0.166667	0.383533	0.9498
Oz_765	O	0.297667	0.416767	0.7501
Oz_766	O	0.106433	0.340133	0.673467
Siz_767	Si	0.111033	0.624767	0.7011
Oz_768	O	0.2445	0.333333	0.7555
Oz_769	O	0.283133	0.5	0.716867
Oz_770	O	0.0834333	0.631	0.7501
Oz_771	O	0.0068	0.439767	0.673467
Siz_772	Si	0.2223	0.632233	0.708567
Oz_773	O	0.2499	0.583233	0.702333
Oz_774	O	0.326533	0.659867	0.893567
Siz_775	Si	0.2989	0.375233	0.888967
Oz_776	O	0.2499	0.369	0.916567
Oz_777	O	0.326533	0.560233	0.9932
Siz_778	Si	0.0419	0.555633	0.965567
Oz_779	O	0.0356667	0.583233	0.916567
Oz_780	O	0.2269	0.659867	0.9932
Siz_781	Si	0.2989	0.555633	0.708567
Oz_782	O	0.2445	0.422167	0.666667
Oz_783	O	0.283133	0.383533	0.833333
Siz_784	Si	0.0419	0.632233	0.888967
Oz_785	O	0.0	0.577833	0.7555
Oz_786	O	0.166667	0.616467	0.716867
Siz_787	Si	0.2223	0.375233	0.965567
Oz_788	O	0.0888333	0.333333	0.911167
Oz_789	O	0.0502	0.5	0.9498
Siz_790	Si	0.111033	0.367767	0.9581
Siz_791	Si	0.0344333	0.624767	0.7777
Siz_792	Si	0.291433	0.444367	0.7011
Siz_793	Si	0.367767	0.444367	0.9581
Oz_794	O	0.422167	0.577833	0.666667
Oz_795	O	0.383533	0.616467	0.833333
Oz_796	O	0.416767	0.416767	0.964333
Oz_797	O	0.340133	0.340133	0.7731
Siz_798	Si	0.624767	0.367767	0.7777
Oz_799	O	0.333333	0.422167	0.911167
Oz_800	O	0.5	0.383533	0.9498
Oz_801	O	0.631	0.416767	0.7501
Oz_802	O	0.439767	0.340133	0.673467
Siz_803	Si	0.444367	0.624767	0.7011
Oz_804	O	0.577833	0.333333	0.7555
Oz_805	O	0.616467	0.5	0.716867
Oz_806	O	0.416767	0.631	0.7501
Oz_807	O	0.340133	0.439767	0.673467
Siz_808	Si	0.555633	0.632233	0.708567
Oz_809	O	0.583233	0.583233	0.702333
Oz_810	O	0.659867	0.659867	0.893567
Siz_811	Si	0.632233	0.375233	0.888967
Oz_812	O	0.583233	0.369	0.916567
Oz_813	O	0.659867	0.560233	0.9932
Siz_814	Si	0.375233	0.555633	0.965567
Oz_815	O	0.369	0.583233	0.916567
Oz_816	O	0.560233	0.659867	0.9932
Siz_817	Si	0.632233	0.555633	0.708567
Oz_818	O	0.577833	0.422167	0.666667
Oz_819	O	0.616467	0.383533	0.833333
Siz_820	Si	0.375233	0.632233	0.888967
Oz_821	O	0.333333	0.577833	0.7555
Oz_822	O	0.5	0.616467	0.716867
Siz_823	Si	0.555633	0.375233	0.965567
Oz_824	O	0.422167	0.333333	0.911167
Oz_825	O	0.383533	0.5	0.9498
Siz_826	Si	0.444367	0.367767	0.9581
Siz_827	Si	0.367767	0.624767	0.7777
Siz_828	Si	0.624767	0.444367	0.7011
Siz_829	Si	0.7011	0.444367	0.9581
Oz_830	O	0.7555	0.577833	0.666667
Oz_831	O	0.716867	0.616467	0.833333
Oz_832	O	0.7501	0.416767	0.964333
Oz_833	O	0.673467	0.340133	0.7731
Siz_834	Si	0.9581	0.367767	0.7777
Oz_835	O	0.666667	0.422167	0.911167
Oz_836	O	0.833333	0.383533	0.9498
Oz_837	O	0.964333	0.416767	0.7501
Oz_838	O	0.7731	0.340133	0.673467
Siz_839	Si	0.7777	0.624767	0.7011
Oz_840	O	0.911167	0.333333	0.7555
Oz_841	O	0.9498	0.5	0.716867
Oz_842	O	0.7501	0.631	0.7501
Oz_843	O	0.673467	0.439767	0.673467
Siz_844	Si	0.888967	0.632233	0.708567
Oz_845	O	0.916567	0.583233	0.702333
Oz_846	O	0.9932	0.659867	0.893567
Siz_847	Si	0.965567	0.375233	0.888967
Oz_848	O	0.916567	0.369	0.916567
Oz_849	O	0.9932	0.560233	0.9932
Siz_850	Si	0.708567	0.555633	0.965567
Oz_851	O	0.702333	0.583233	0.916567
Oz_852	O	0.893567	0.659867	0.9932
Siz_853	Si	0.965567	0.555633	0.708567
Oz_854	O	0.911167	0.422167	0.666667
Oz_855	O	0.9498	0.383533	0.833333
Siz_856	Si	0.708567	0.632233	0.888967
Oz_857	O	0.666667	0.577833	0.7555
Oz_858	O	0.833333	0.616467	0.716867
Siz_859	Si	0.888967	0.375233	0.965567
Oz_860	O	0.7555	0.333333	0.911167
Oz_861	O	0.716867	0.5	0.9498
Siz_862	Si	0.7777	0.367767	0.9581
Siz_863	Si	0.7011	0.624767	0.7777
Siz_864	Si	0.9581	0.444367	0.7011
Siz_865	Si	0.0344333	0.7777	0.9581
Oz_866	O	0.0888333	0.911167	0.666667
Oz_867	O	0.0502	0.9498	0.833333
Oz_868	O	0.0834333	0.7501	0.964333
Oz_869	O	0.0068	0.673467	0.7731
Siz_870	Si	0.291433	0.7011	0.7777
Oz_871	O	0.0	0.7555	0.911167
Oz_872	O	0.166667	0.716867	0.9498
Oz_873	O	0.297667	0.7501	0.7501
Oz_874	O	0.106433	0.673467	0.673467
Siz_875	Si	0.111033	0.9581	0.7011
Oz_876	O	0.2445	0.666667	0.7555
Oz_877	O	0.283133	0.833333	0.716867
Oz_878	O	0.0834333	0.964333	0.7501
Oz_879	O	0.0068	0.7731	0.673467
Siz_880	Si	0.2223	0.965567	0.708567
Oz_881	O	0.2499	0.916567	0.702333
Oz_882	O	0.326533	0.9932	0.893567
Siz_883	Si	0.2989	0.708567	0.888967
Oz_884	O	0.2499	0.702333	0.916567
Oz_885	O	0.326533	0.893567	0.9932
Siz_886	Si	0.0419	0.888967	0.965567
Oz_887	O	0.0356667	0.916567	0.916567
Oz_888	O	0.2269	0.9932	0.9932
Siz_889	Si	0.2989	0.888967	0.708567
Oz_890	O	0.2445	0.7555	0.666667
Oz_891	O	0.283133	0.716867	0.833333
Siz_892	Si	0.0419	0.965567	0.888967
Oz_893	O	0.0	0.911167	0.7555
Oz_894	O	0.166667	0.9498	0.716867
Siz_895	Si	0.2223	0.708567	0.965567
Oz_896	O	0.0888333	0.666667	0.911167
Oz_897	O	0.0502	0.833333	0.9498
Siz_898	Si	0.111033	0.7011	0.9581
Siz_899	Si	0.0344333	0.9581	0.7777
Siz_900	Si	0.291433	0.7777	0.7011
Siz_901	Si	0.367767	0.7777	0.9581
Oz_902	O	0.422167	0.911167	0.666667
Oz_903	O	0.383533	0.9498	0.833333
Oz_904	O	0.416767	0.7501	0.964333
Oz_905	O	0.340133	0.673467	0.7731
Siz_906	Si	0.624767	0.7011	0.7777
Oz_907	O	0.333333	0.7555	0.911167
Oz_908	O	0.5	0.716867	0.9498
Oz_909	O	0.631	0.7501	0.7501
Oz_910	O	0.439767	0.673467	0.673467
Siz_911	Si	0.444367	0.9581	0.7011
Oz_912	O	0.577833	0.666667	0.7555
Oz_913	O	0.616467	0.833333	0.716867
Oz_914	O	0.416767	0.964333	0.7501
Oz_915	O	0.340133	0.7731	0.673467
Siz_916	Si	0.555633	0.965567	0.708567
Oz_917	O	0.583233	0.916567	0.702333
Oz_918	O	0.659867	0.9932	0.893567
Siz_919	Si	0.632233	0.708567	0.888967
Oz_920	O	0.583233	0.702333	0.916567
Oz_921	O	0.659867	0.893567	0.9932
Siz_922	Si	0.375233	0.888967	0.965567
Oz_923	O	0.369	0.916567	0.916567
Oz_924	O	0.560233	0.9932	0.9932
Siz_925	Si	0.632233	0.888967	0.708567
Oz_926	O	0.577833	0.7555	0.666667
Oz_927	O	0.616467	0.716867	0.833333
Siz_928	Si	0.375233	0.965567	0.888967
Oz_929	O	0.333333	0.911167	0.7555
Oz_930	O	0.5	0.9498	0.716867
Siz_931	Si	0.555633	0.708567	0.965567
Oz_932	O	0.422167	0.666667	0.911167
Oz_933	O	0.383533	0.833333	0.9498
Siz_934	Si	0.444367	0.7011	0.9581
Siz_935	Si	0.367767	0.9581	0.7777
Siz_936	Si	0.624767	0.7777	0.7011
Siz_937	Si	0.7011	0.7777	0.9581
Oz_938	O	0.7555	0.911167	0.666667
Oz_939	O	0.716867	0.9498	0.833333
Oz_940	O	0.7501	0.7501	0.964333
Oz_941	O	0.673467	0.673467	0.7731
Siz_942	Si	0.9581	0.7011	0.7777
Oz_943	O	0.666667	0.7555	0.911167
Oz_944	O	0.833333	0.716867	0.9498
Oz_945	O	0.964333	0.7501	0.7501
Oz_946	O	0.7731	0.673467	0.673467
Siz_947	Si	0.7777	0.9581	0.7011
Oz_948	O	0.911167	0.666667	0.7555
Oz_949	O	0.9498	0.833333	0.716867
Oz_950	O	0.7501	0.964333	0.7501
Oz_951	O	0.673467	0.7731	0.673467
Siz_952	Si	0.888967	0.965567	0.708567
Oz_953	O	0.916567	0.916567	0.702333
Oz_954	O	0.9932	0.9932	0.893567
Siz_955	Si	0.965567	0.708567	0.888967
Oz_956	O	0.916567	0.702333	0.916567
Oz_957	O	0.9932	0.893567	0.9932
Siz_958	Si	0.708567	0.888967	0.965567
Oz_959	O	0.702333	0.916567	0.916567
Oz_960	O	0.893567	0.9932	0.9932
Siz_961	Si	0.965567	0.888967	0.708567
Oz_962	O	0.911167	0.7555	0.666667
Oz_963	O	0.9498	0.716867	0.833333
Siz_964	Si	0.708567	0.965567	0.888967
Oz_965	O	0.666667	0.911167	0.7555
Oz_966	O	0.833333	0.9498	0.716867
Siz_967	Si	0.888967	0.708567	0.965567
Oz_968	O	0.7555	0.666667	0.911167
Oz_969	O	0.716867	0.833333	0.9498
Siz_970	Si	0.7777	0.7011	0.9581
Siz_971	Si	0.7011	0.9581	0.7777
Siz_972	Si	0.9581	0.7777	0.7011


#END
