data_CHA_1.4_3b4eeb96_Na_11812.cif



_cell_length_a		28.377
_cell_length_b		28.377
_cell_length_c		28.377
_cell_angle_alpha		94.07
_cell_angle_beta		94.07
_cell_angle_gamma		94.07

_symmetry_space_group_name_H-M	'P 1'
_symmetry_Int_Tables_number	1
_symmetry_cell_setting	triclinic

loop_
_symmetry_equiv_pos_as_xyz
x,y,z

loop_
_atom_site_label
_atom_site_type_symbol
_atom_site_fract_x
_atom_site_fract_y
_atom_site_fract_z
Alz_1	Al	0.0344333	0.111033	0.291433
Oz_2	O	0.0888333	0.2445	0.0
Oa_3	O	0.0502	0.283133	0.166667
Oa_4	O	0.0834333	0.0834333	0.297667
Oa_5	O	0.0068	0.0068	0.106433
Alz_6	Al	0.291433	0.0344333	0.111033
Oa_7	O	0.0	0.0888333	0.2445
Oa_8	O	0.166667	0.0502	0.283133
Oa_9	O	0.297667	0.0834333	0.0834333
Oa_10	O	0.106433	0.0068	0.0068
Siz_11	Si	0.111033	0.291433	0.0344333
Oa_12	O	0.2445	0.0	0.0888333
Oa_13	O	0.283133	0.166667	0.0502
Oz_14	O	0.0834333	0.297667	0.0834333
Oa_15	O	0.0068	0.106433	0.0068
Siz_16	Si	0.2223	0.2989	0.0419
Oa_17	O	0.2499	0.2499	0.0356667
Oa_18	O	0.326533	0.326533	0.2269
Siz_19	Si	0.2989	0.0419	0.2223
Oa_20	O	0.2499	0.0356667	0.2499
Oa_21	O	0.326533	0.2269	0.326533
Siz_22	Si	0.0419	0.2223	0.2989
Oa_23	O	0.0356667	0.2499	0.2499
Oa_24	O	0.2269	0.326533	0.326533
Alz_25	Al	0.2989	0.2223	0.0419
Oa_26	O	0.2445	0.0888333	0.0
Oa_27	O	0.283133	0.0502	0.166667
Alz_28	Al	0.0419	0.2989	0.2223
Oz_29	O	0.0	0.2445	0.0888333
Oz_30	O	0.166667	0.283133	0.0502
Alz_31	Al	0.2223	0.0419	0.2989
Oa_32	O	0.0888333	0.0	0.2445
Oa_33	O	0.0502	0.166667	0.283133
Siz_34	Si	0.111033	0.0344333	0.291433
Siz_35	Si	0.0344333	0.291433	0.111033
Siz_36	Si	0.291433	0.111033	0.0344333
Alz_37	Al	0.367767	0.111033	0.291433
Oa_38	O	0.422167	0.2445	0.0
Oa_39	O	0.383533	0.283133	0.166667
Oa_40	O	0.416767	0.0834333	0.297667
Oa_41	O	0.340133	0.0068	0.106433
Alz_42	Al	0.624767	0.0344333	0.111033
Oa_43	O	0.333333	0.0888333	0.2445
Oa_44	O	0.5	0.0502	0.283133
Oa_45	O	0.631	0.0834333	0.0834333
Oa_46	O	0.439767	0.0068	0.0068
Alz_47	Al	0.444367	0.291433	0.0344333
Oa_48	O	0.577833	0.0	0.0888333
Oa_49	O	0.616467	0.166667	0.0502
Oa_50	O	0.416767	0.297667	0.0834333
Oa_51	O	0.340133	0.106433	0.0068
Siz_52	Si	0.555633	0.2989	0.0419
Oa_53	O	0.583233	0.2499	0.0356667
Oz_54	O	0.659867	0.326533	0.2269
Siz_55	Si	0.632233	0.0419	0.2223
Oa_56	O	0.583233	0.0356667	0.2499
Oa_57	O	0.659867	0.2269	0.326533
Siz_58	Si	0.375233	0.2223	0.2989
Oa_59	O	0.369	0.2499	0.2499
Oa_60	O	0.560233	0.326533	0.326533
Alz_61	Al	0.632233	0.2223	0.0419
Oa_62	O	0.577833	0.0888333	0.0
Oa_63	O	0.616467	0.0502	0.166667
Alz_64	Al	0.375233	0.2989	0.2223
Oa_65	O	0.333333	0.2445	0.0888333
Oa_66	O	0.5	0.283133	0.0502
Alz_67	Al	0.555633	0.0419	0.2989
Oa_68	O	0.422167	0.0	0.2445
Oa_69	O	0.383533	0.166667	0.283133
Siz_70	Si	0.444367	0.0344333	0.291433
Siz_71	Si	0.367767	0.291433	0.111033
Siz_72	Si	0.624767	0.111033	0.0344333
Alz_73	Al	0.7011	0.111033	0.291433
Oa_74	O	0.7555	0.2445	0.0
Oz_75	O	0.716867	0.283133	0.166667
Oa_76	O	0.7501	0.0834333	0.297667
Oa_77	O	0.673467	0.0068	0.106433
Alz_78	Al	0.9581	0.0344333	0.111033
Oa_79	O	0.666667	0.0888333	0.2445
Oa_80	O	0.833333	0.0502	0.283133
Oa_81	O	0.964333	0.0834333	0.0834333
Oz_82	O	0.7731	0.0068	0.0068
Alz_83	Al	0.7777	0.291433	0.0344333
Oa_84	O	0.911167	0.0	0.0888333
Oz_85	O	0.9498	0.166667	0.0502
Oa_86	O	0.7501	0.297667	0.0834333
Oa_87	O	0.673467	0.106433	0.0068
Siz_88	Si	0.888967	0.2989	0.0419
Oz_89	O	0.916567	0.2499	0.0356667
Oa_90	O	0.9932	0.326533	0.2269
Siz_91	Si	0.965567	0.0419	0.2223
Oa_92	O	0.916567	0.0356667	0.2499
Oa_93	O	0.9932	0.2269	0.326533
Siz_94	Si	0.708567	0.2223	0.2989
Oz_95	O	0.702333	0.2499	0.2499
Oa_96	O	0.893567	0.326533	0.326533
Siz_97	Si	0.965567	0.2223	0.0419
Oz_98	O	0.911167	0.0888333	0.0
Oa_99	O	0.9498	0.0502	0.166667
Siz_100	Si	0.708567	0.2989	0.2223
Oa_101	O	0.666667	0.2445	0.0888333
Oa_102	O	0.833333	0.283133	0.0502
Alz_103	Al	0.888967	0.0419	0.2989
Oz_104	O	0.7555	0.0	0.2445
Oa_105	O	0.716867	0.166667	0.283133
Siz_106	Si	0.7777	0.0344333	0.291433
Siz_107	Si	0.7011	0.291433	0.111033
Siz_108	Si	0.9581	0.111033	0.0344333
Siz_109	Si	0.0344333	0.444367	0.291433
Oz_110	O	0.0888333	0.577833	0.0
Oz_111	O	0.0502	0.616467	0.166667
Oz_112	O	0.0834333	0.416767	0.297667
Oa_113	O	0.0068	0.340133	0.106433
Siz_114	Si	0.291433	0.367767	0.111033
Oz_115	O	0.0	0.422167	0.2445
Oa_116	O	0.166667	0.383533	0.283133
Oz_117	O	0.297667	0.416767	0.0834333
Oz_118	O	0.106433	0.340133	0.0068
Siz_119	Si	0.111033	0.624767	0.0344333
Oz_120	O	0.2445	0.333333	0.0888333
Oa_121	O	0.283133	0.5	0.0502
Oz_122	O	0.0834333	0.631	0.0834333
Oa_123	O	0.0068	0.439767	0.0068
Siz_124	Si	0.2223	0.632233	0.0419
Oa_125	O	0.2499	0.583233	0.0356667
Oa_126	O	0.326533	0.659867	0.2269
Siz_127	Si	0.2989	0.375233	0.2223
Oa_128	O	0.2499	0.369	0.2499
Oa_129	O	0.326533	0.560233	0.326533
Siz_130	Si	0.0419	0.555633	0.2989
Oz_131	O	0.0356667	0.583233	0.2499
Oa_132	O	0.2269	0.659867	0.326533
Alz_133	Al	0.2989	0.555633	0.0419
Oa_134	O	0.2445	0.422167	0.0
Oz_135	O	0.283133	0.383533	0.166667
Siz_136	Si	0.0419	0.632233	0.2223
Oa_137	O	0.0	0.577833	0.0888333
Oz_138	O	0.166667	0.616467	0.0502
Alz_139	Al	0.2223	0.375233	0.2989
Oa_140	O	0.0888333	0.333333	0.2445
Oz_141	O	0.0502	0.5	0.283133
Siz_142	Si	0.111033	0.367767	0.291433
Siz_143	Si	0.0344333	0.624767	0.111033
Siz_144	Si	0.291433	0.444367	0.0344333
Alz_145	Al	0.367767	0.444367	0.291433
Oa_146	O	0.422167	0.577833	0.0
Oa_147	O	0.383533	0.616467	0.166667
Oa_148	O	0.416767	0.416767	0.297667
Oz_149	O	0.340133	0.340133	0.106433
Alz_150	Al	0.624767	0.367767	0.111033
Oa_151	O	0.333333	0.422167	0.2445
Oa_152	O	0.5	0.383533	0.283133
Oa_153	O	0.631	0.416767	0.0834333
Oa_154	O	0.439767	0.340133	0.0068
Alz_155	Al	0.444367	0.624767	0.0344333
Oa_156	O	0.577833	0.333333	0.0888333
Oa_157	O	0.616467	0.5	0.0502
Oa_158	O	0.416767	0.631	0.0834333
Oa_159	O	0.340133	0.439767	0.0068
Siz_160	Si	0.555633	0.632233	0.0419
Oa_161	O	0.583233	0.583233	0.0356667
Oa_162	O	0.659867	0.659867	0.2269
Siz_163	Si	0.632233	0.375233	0.2223
Oa_164	O	0.583233	0.369	0.2499
Oa_165	O	0.659867	0.560233	0.326533
Siz_166	Si	0.375233	0.555633	0.2989
Oa_167	O	0.369	0.583233	0.2499
Oa_168	O	0.560233	0.659867	0.326533
Alz_169	Al	0.632233	0.555633	0.0419
Oa_170	O	0.577833	0.422167	0.0
Oa_171	O	0.616467	0.383533	0.166667
Alz_172	Al	0.375233	0.632233	0.2223
Oa_173	O	0.333333	0.577833	0.0888333
Oa_174	O	0.5	0.616467	0.0502
Alz_175	Al	0.555633	0.375233	0.2989
Oa_176	O	0.422167	0.333333	0.2445
Oa_177	O	0.383533	0.5	0.283133
Siz_178	Si	0.444367	0.367767	0.291433
Siz_179	Si	0.367767	0.624767	0.111033
Siz_180	Si	0.624767	0.444367	0.0344333
Alz_181	Al	0.7011	0.444367	0.291433
Oa_182	O	0.7555	0.577833	0.0
Oa_183	O	0.716867	0.616467	0.166667
Oa_184	O	0.7501	0.416767	0.297667
Oa_185	O	0.673467	0.340133	0.106433
Alz_186	Al	0.9581	0.367767	0.111033
Oa_187	O	0.666667	0.422167	0.2445
Oa_188	O	0.833333	0.383533	0.283133
Oa_189	O	0.964333	0.416767	0.0834333
Oa_190	O	0.7731	0.340133	0.0068
Alz_191	Al	0.7777	0.624767	0.0344333
Oa_192	O	0.911167	0.333333	0.0888333
Oa_193	O	0.9498	0.5	0.0502
Oa_194	O	0.7501	0.631	0.0834333
Oa_195	O	0.673467	0.439767	0.0068
Siz_196	Si	0.888967	0.632233	0.0419
Oa_197	O	0.916567	0.583233	0.0356667
Oz_198	O	0.9932	0.659867	0.2269
Siz_199	Si	0.965567	0.375233	0.2223
Oa_200	O	0.916567	0.369	0.2499
Oa_201	O	0.9932	0.560233	0.326533
Siz_202	Si	0.708567	0.555633	0.2989
Oa_203	O	0.702333	0.583233	0.2499
Oa_204	O	0.893567	0.659867	0.326533
Alz_205	Al	0.965567	0.555633	0.0419
Oz_206	O	0.911167	0.422167	0.0
Oa_207	O	0.9498	0.383533	0.166667
Alz_208	Al	0.708567	0.632233	0.2223
Oa_209	O	0.666667	0.577833	0.0888333
Oa_210	O	0.833333	0.616467	0.0502
Alz_211	Al	0.888967	0.375233	0.2989
Oz_212	O	0.7555	0.333333	0.2445
Oa_213	O	0.716867	0.5	0.283133
Siz_214	Si	0.7777	0.367767	0.291433
Siz_215	Si	0.7011	0.624767	0.111033
Siz_216	Si	0.9581	0.444367	0.0344333
Alz_217	Al	0.0344333	0.7777	0.291433
Oa_218	O	0.0888333	0.911167	0.0
Oa_219	O	0.0502	0.9498	0.166667
Oa_220	O	0.0834333	0.7501	0.297667
Oa_221	O	0.0068	0.673467	0.106433
Alz_222	Al	0.291433	0.7011	0.111033
Oa_223	O	0.0	0.7555	0.2445
Oa_224	O	0.166667	0.716867	0.283133
Oa_225	O	0.297667	0.7501	0.0834333
Oz_226	O	0.106433	0.673467	0.0068
Alz_227	Al	0.111033	0.9581	0.0344333
Oa_228	O	0.2445	0.666667	0.0888333
Oa_229	O	0.283133	0.833333	0.0502
Oa_230	O	0.0834333	0.964333	0.0834333
Oa_231	O	0.0068	0.7731	0.0068
Siz_232	Si	0.2223	0.965567	0.0419
Oa_233	O	0.2499	0.916567	0.0356667
Oa_234	O	0.326533	0.9932	0.2269
Siz_235	Si	0.2989	0.708567	0.2223
Oa_236	O	0.2499	0.702333	0.2499
Oa_237	O	0.326533	0.893567	0.326533
Siz_238	Si	0.0419	0.888967	0.2989
Oa_239	O	0.0356667	0.916567	0.2499
Oa_240	O	0.2269	0.9932	0.326533
Alz_241	Al	0.2989	0.888967	0.0419
Oa_242	O	0.2445	0.7555	0.0
Oa_243	O	0.283133	0.716867	0.166667
Alz_244	Al	0.0419	0.965567	0.2223
Oa_245	O	0.0	0.911167	0.0888333
Oa_246	O	0.166667	0.9498	0.0502
Alz_247	Al	0.2223	0.708567	0.2989
Oz_248	O	0.0888333	0.666667	0.2445
Oa_249	O	0.0502	0.833333	0.283133
Siz_250	Si	0.111033	0.7011	0.291433
Siz_251	Si	0.0344333	0.9581	0.111033
Siz_252	Si	0.291433	0.7777	0.0344333
Siz_253	Si	0.367767	0.7777	0.291433
Oa_254	O	0.422167	0.911167	0.0
Oa_255	O	0.383533	0.9498	0.166667
Oz_256	O	0.416767	0.7501	0.297667
Oa_257	O	0.340133	0.673467	0.106433
Alz_258	Al	0.624767	0.7011	0.111033
Oz_259	O	0.333333	0.7555	0.2445
Oa_260	O	0.5	0.716867	0.283133
Oa_261	O	0.631	0.7501	0.0834333
Oa_262	O	0.439767	0.673467	0.0068
Alz_263	Al	0.444367	0.9581	0.0344333
Oa_264	O	0.577833	0.666667	0.0888333
Oa_265	O	0.616467	0.833333	0.0502
Oa_266	O	0.416767	0.964333	0.0834333
Oz_267	O	0.340133	0.7731	0.0068
Siz_268	Si	0.555633	0.965567	0.0419
Oa_269	O	0.583233	0.916567	0.0356667
Oz_270	O	0.659867	0.9932	0.2269
Siz_271	Si	0.632233	0.708567	0.2223
Oa_272	O	0.583233	0.702333	0.2499
Oa_273	O	0.659867	0.893567	0.326533
Siz_274	Si	0.375233	0.888967	0.2989
Oa_275	O	0.369	0.916567	0.2499
Oa_276	O	0.560233	0.9932	0.326533
Alz_277	Al	0.632233	0.888967	0.0419
Oa_278	O	0.577833	0.7555	0.0
Oa_279	O	0.616467	0.716867	0.166667
Alz_280	Al	0.375233	0.965567	0.2223
Oa_281	O	0.333333	0.911167	0.0888333
Oa_282	O	0.5	0.9498	0.0502
Alz_283	Al	0.555633	0.708567	0.2989
Oa_284	O	0.422167	0.666667	0.2445
Oz_285	O	0.383533	0.833333	0.283133
Siz_286	Si	0.444367	0.7011	0.291433
Siz_287	Si	0.367767	0.9581	0.111033
Siz_288	Si	0.624767	0.7777	0.0344333
Alz_289	Al	0.7011	0.7777	0.291433
Oz_290	O	0.7555	0.911167	0.0
Oz_291	O	0.716867	0.9498	0.166667
Oa_292	O	0.7501	0.7501	0.297667
Oa_293	O	0.673467	0.673467	0.106433
Alz_294	Al	0.9581	0.7011	0.111033
Oa_295	O	0.666667	0.7555	0.2445
Oa_296	O	0.833333	0.716867	0.283133
Oa_297	O	0.964333	0.7501	0.0834333
Oa_298	O	0.7731	0.673467	0.0068
Siz_299	Si	0.7777	0.9581	0.0344333
Oa_300	O	0.911167	0.666667	0.0888333
Oa_301	O	0.9498	0.833333	0.0502
Oz_302	O	0.7501	0.964333	0.0834333
Oz_303	O	0.673467	0.7731	0.0068
Siz_304	Si	0.888967	0.965567	0.0419
Oa_305	O	0.916567	0.916567	0.0356667
Oa_306	O	0.9932	0.9932	0.2269
Siz_307	Si	0.965567	0.708567	0.2223
Oa_308	O	0.916567	0.702333	0.2499
Oa_309	O	0.9932	0.893567	0.326533
Siz_310	Si	0.708567	0.888967	0.2989
Oz_311	O	0.702333	0.916567	0.2499
Oa_312	O	0.893567	0.9932	0.326533
Alz_313	Al	0.965567	0.888967	0.0419
Oa_314	O	0.911167	0.7555	0.0
Oa_315	O	0.9498	0.716867	0.166667
Siz_316	Si	0.708567	0.965567	0.2223
Oa_317	O	0.666667	0.911167	0.0888333
Oz_318	O	0.833333	0.9498	0.0502
Alz_319	Al	0.888967	0.708567	0.2989
Oa_320	O	0.7555	0.666667	0.2445
Oa_321	O	0.716867	0.833333	0.283133
Siz_322	Si	0.7777	0.7011	0.291433
Siz_323	Si	0.7011	0.9581	0.111033
Siz_324	Si	0.9581	0.7777	0.0344333
Siz_325	Si	0.0344333	0.111033	0.624767
Oa_326	O	0.0888333	0.2445	0.333333
Oa_327	O	0.0502	0.283133	0.5
Oz_328	O	0.0834333	0.0834333	0.631
Oa_329	O	0.0068	0.0068	0.439767
Alz_330	Al	0.291433	0.0344333	0.444367
Oz_331	O	0.0	0.0888333	0.577833
Oz_332	O	0.166667	0.0502	0.616467
Oa_333	O	0.297667	0.0834333	0.416767
Oa_334	O	0.106433	0.0068	0.340133
Alz_335	Al	0.111033	0.291433	0.367767
Oa_336	O	0.2445	0.0	0.422167
Oa_337	O	0.283133	0.166667	0.383533
Oa_338	O	0.0834333	0.297667	0.416767
Oa_339	O	0.0068	0.106433	0.340133
Siz_340	Si	0.2223	0.2989	0.375233
Oa_341	O	0.2499	0.2499	0.369
Oa_342	O	0.326533	0.326533	0.560233
Siz_343	Si	0.2989	0.0419	0.555633
Oz_344	O	0.2499	0.0356667	0.583233
Oa_345	O	0.326533	0.2269	0.659867
Siz_346	Si	0.0419	0.2223	0.632233
Oa_347	O	0.0356667	0.2499	0.583233
Oa_348	O	0.2269	0.326533	0.659867
Alz_349	Al	0.2989	0.2223	0.375233
Oa_350	O	0.2445	0.0888333	0.333333
Oa_351	O	0.283133	0.0502	0.5
Alz_352	Al	0.0419	0.2989	0.555633
Oa_353	O	0.0	0.2445	0.422167
Oa_354	O	0.166667	0.283133	0.383533
Siz_355	Si	0.2223	0.0419	0.632233
Oa_356	O	0.0888333	0.0	0.577833
Oz_357	O	0.0502	0.166667	0.616467
Siz_358	Si	0.111033	0.0344333	0.624767
Siz_359	Si	0.0344333	0.291433	0.444367
Siz_360	Si	0.291433	0.111033	0.367767
Alz_361	Al	0.367767	0.111033	0.624767
Oz_362	O	0.422167	0.2445	0.333333
Oa_363	O	0.383533	0.283133	0.5
Oa_364	O	0.416767	0.0834333	0.631
Oa_365	O	0.340133	0.0068	0.439767
Alz_366	Al	0.624767	0.0344333	0.444367
Oa_367	O	0.333333	0.0888333	0.577833
Oa_368	O	0.5	0.0502	0.616467
Oa_369	O	0.631	0.0834333	0.416767
Oa_370	O	0.439767	0.0068	0.340133
Siz_371	Si	0.444367	0.291433	0.367767
Oa_372	O	0.577833	0.0	0.422167
Oa_373	O	0.616467	0.166667	0.383533
Oz_374	O	0.416767	0.297667	0.416767
Oa_375	O	0.340133	0.106433	0.340133
Siz_376	Si	0.555633	0.2989	0.375233
Oa_377	O	0.583233	0.2499	0.369
Oa_378	O	0.659867	0.326533	0.560233
Siz_379	Si	0.632233	0.0419	0.555633
Oa_380	O	0.583233	0.0356667	0.583233
Oa_381	O	0.659867	0.2269	0.659867
Siz_382	Si	0.375233	0.2223	0.632233
Oa_383	O	0.369	0.2499	0.583233
Oa_384	O	0.560233	0.326533	0.659867
Alz_385	Al	0.632233	0.2223	0.375233
Oa_386	O	0.577833	0.0888333	0.333333
Oa_387	O	0.616467	0.0502	0.5
Alz_388	Al	0.375233	0.2989	0.555633
Oa_389	O	0.333333	0.2445	0.422167
Oz_390	O	0.5	0.283133	0.383533
Alz_391	Al	0.555633	0.0419	0.632233
Oz_392	O	0.422167	0.0	0.577833
Oa_393	O	0.383533	0.166667	0.616467
Siz_394	Si	0.444367	0.0344333	0.624767
Siz_395	Si	0.367767	0.291433	0.444367
Siz_396	Si	0.624767	0.111033	0.367767
Alz_397	Al	0.7011	0.111033	0.624767
Oa_398	O	0.7555	0.2445	0.333333
Oa_399	O	0.716867	0.283133	0.5
Oa_400	O	0.7501	0.0834333	0.631
Oa_401	O	0.673467	0.0068	0.439767
Alz_402	Al	0.9581	0.0344333	0.444367
Oa_403	O	0.666667	0.0888333	0.577833
Oa_404	O	0.833333	0.0502	0.616467
Oa_405	O	0.964333	0.0834333	0.416767
Oa_406	O	0.7731	0.0068	0.340133
Alz_407	Al	0.7777	0.291433	0.367767
Oa_408	O	0.911167	0.0	0.422167
Oa_409	O	0.9498	0.166667	0.383533
Oa_410	O	0.7501	0.297667	0.416767
Oa_411	O	0.673467	0.106433	0.340133
Siz_412	Si	0.888967	0.2989	0.375233
Oa_413	O	0.916567	0.2499	0.369
Oa_414	O	0.9932	0.326533	0.560233
Siz_415	Si	0.965567	0.0419	0.555633
Oa_416	O	0.916567	0.0356667	0.583233
Oa_417	O	0.9932	0.2269	0.659867
Siz_418	Si	0.708567	0.2223	0.632233
Oa_419	O	0.702333	0.2499	0.583233
Oz_420	O	0.893567	0.326533	0.659867
Alz_421	Al	0.965567	0.2223	0.375233
Oa_422	O	0.911167	0.0888333	0.333333
Oa_423	O	0.9498	0.0502	0.5
Alz_424	Al	0.708567	0.2989	0.555633
Oa_425	O	0.666667	0.2445	0.422167
Oa_426	O	0.833333	0.283133	0.383533
Alz_427	Al	0.888967	0.0419	0.632233
Oa_428	O	0.7555	0.0	0.577833
Oa_429	O	0.716867	0.166667	0.616467
Siz_430	Si	0.7777	0.0344333	0.624767
Siz_431	Si	0.7011	0.291433	0.444367
Siz_432	Si	0.9581	0.111033	0.367767
Alz_433	Al	0.0344333	0.444367	0.624767
Oa_434	O	0.0888333	0.577833	0.333333
Oa_435	O	0.0502	0.616467	0.5
Oa_436	O	0.0834333	0.416767	0.631
Oa_437	O	0.0068	0.340133	0.439767
Alz_438	Al	0.291433	0.367767	0.444367
Oa_439	O	0.0	0.422167	0.577833
Oa_440	O	0.166667	0.383533	0.616467
Oa_441	O	0.297667	0.416767	0.416767
Oa_442	O	0.106433	0.340133	0.340133
Alz_443	Al	0.111033	0.624767	0.367767
Oa_444	O	0.2445	0.333333	0.422167
Oa_445	O	0.283133	0.5	0.383533
Oa_446	O	0.0834333	0.631	0.416767
Oz_447	O	0.0068	0.439767	0.340133
Siz_448	Si	0.2223	0.632233	0.375233
Oa_449	O	0.2499	0.583233	0.369
Oa_450	O	0.326533	0.659867	0.560233
Siz_451	Si	0.2989	0.375233	0.555633
Oa_452	O	0.2499	0.369	0.583233
Oa_453	O	0.326533	0.560233	0.659867
Siz_454	Si	0.0419	0.555633	0.632233
Oa_455	O	0.0356667	0.583233	0.583233
Oa_456	O	0.2269	0.659867	0.659867
Alz_457	Al	0.2989	0.555633	0.375233
Oa_458	O	0.2445	0.422167	0.333333
Oa_459	O	0.283133	0.383533	0.5
Alz_460	Al	0.0419	0.632233	0.555633
Oa_461	O	0.0	0.577833	0.422167
Oa_462	O	0.166667	0.616467	0.383533
Alz_463	Al	0.2223	0.375233	0.632233
Oa_464	O	0.0888333	0.333333	0.577833
Oa_465	O	0.0502	0.5	0.616467
Siz_466	Si	0.111033	0.367767	0.624767
Siz_467	Si	0.0344333	0.624767	0.444367
Siz_468	Si	0.291433	0.444367	0.367767
Alz_469	Al	0.367767	0.444367	0.624767
Oa_470	O	0.422167	0.577833	0.333333
Oa_471	O	0.383533	0.616467	0.5
Oa_472	O	0.416767	0.416767	0.631
Oa_473	O	0.340133	0.340133	0.439767
Siz_474	Si	0.624767	0.367767	0.444367
Oa_475	O	0.333333	0.422167	0.577833
Oa_476	O	0.5	0.383533	0.616467
Oz_477	O	0.631	0.416767	0.416767
Oz_478	O	0.439767	0.340133	0.340133
Alz_479	Al	0.444367	0.624767	0.367767
Oz_480	O	0.577833	0.333333	0.422167
Oa_481	O	0.616467	0.5	0.383533
Oa_482	O	0.416767	0.631	0.416767
Oa_483	O	0.340133	0.439767	0.340133
Siz_484	Si	0.555633	0.632233	0.375233
Oa_485	O	0.583233	0.583233	0.369
Oa_486	O	0.659867	0.659867	0.560233
Siz_487	Si	0.632233	0.375233	0.555633
Oa_488	O	0.583233	0.369	0.583233
Oa_489	O	0.659867	0.560233	0.659867
Siz_490	Si	0.375233	0.555633	0.632233
Oa_491	O	0.369	0.583233	0.583233
Oa_492	O	0.560233	0.659867	0.659867
Alz_493	Al	0.632233	0.555633	0.375233
Oa_494	O	0.577833	0.422167	0.333333
Oz_495	O	0.616467	0.383533	0.5
Alz_496	Al	0.375233	0.632233	0.555633
Oa_497	O	0.333333	0.577833	0.422167
Oa_498	O	0.5	0.616467	0.383533
Alz_499	Al	0.555633	0.375233	0.632233
Oa_500	O	0.422167	0.333333	0.577833
Oa_501	O	0.383533	0.5	0.616467
Siz_502	Si	0.444367	0.367767	0.624767
Siz_503	Si	0.367767	0.624767	0.444367
Siz_504	Si	0.624767	0.444367	0.367767
Alz_505	Al	0.7011	0.444367	0.624767
Oz_506	O	0.7555	0.577833	0.333333
Oa_507	O	0.716867	0.616467	0.5
Oa_508	O	0.7501	0.416767	0.631
Oz_509	O	0.673467	0.340133	0.439767
Alz_510	Al	0.9581	0.367767	0.444367
Oa_511	O	0.666667	0.422167	0.577833
Oz_512	O	0.833333	0.383533	0.616467
Oa_513	O	0.964333	0.416767	0.416767
Oa_514	O	0.7731	0.340133	0.340133
Siz_515	Si	0.7777	0.624767	0.367767
Oa_516	O	0.911167	0.333333	0.422167
Oa_517	O	0.9498	0.5	0.383533
Oz_518	O	0.7501	0.631	0.416767
Oa_519	O	0.673467	0.439767	0.340133
Siz_520	Si	0.888967	0.632233	0.375233
Oa_521	O	0.916567	0.583233	0.369
Oa_522	O	0.9932	0.659867	0.560233
Siz_523	Si	0.965567	0.375233	0.555633
Oz_524	O	0.916567	0.369	0.583233
Oa_525	O	0.9932	0.560233	0.659867
Siz_526	Si	0.708567	0.555633	0.632233
Oa_527	O	0.702333	0.583233	0.583233
Oa_528	O	0.893567	0.659867	0.659867
Alz_529	Al	0.965567	0.555633	0.375233
Oa_530	O	0.911167	0.422167	0.333333
Oa_531	O	0.9498	0.383533	0.5
Alz_532	Al	0.708567	0.632233	0.555633
Oa_533	O	0.666667	0.577833	0.422167
Oz_534	O	0.833333	0.616467	0.383533
Siz_535	Si	0.888967	0.375233	0.632233
Oa_536	O	0.7555	0.333333	0.577833
Oa_537	O	0.716867	0.5	0.616467
Siz_538	Si	0.7777	0.367767	0.624767
Siz_539	Si	0.7011	0.624767	0.444367
Siz_540	Si	0.9581	0.444367	0.367767
Alz_541	Al	0.0344333	0.7777	0.624767
Oa_542	O	0.0888333	0.911167	0.333333
Oa_543	O	0.0502	0.9498	0.5
Oa_544	O	0.0834333	0.7501	0.631
Oz_545	O	0.0068	0.673467	0.439767
Alz_546	Al	0.291433	0.7011	0.444367
Oa_547	O	0.0	0.7555	0.577833
Oa_548	O	0.166667	0.716867	0.616467
Oa_549	O	0.297667	0.7501	0.416767
Oa_550	O	0.106433	0.673467	0.340133
Alz_551	Al	0.111033	0.9581	0.367767
Oa_552	O	0.2445	0.666667	0.422167
Oa_553	O	0.283133	0.833333	0.383533
Oa_554	O	0.0834333	0.964333	0.416767
Oa_555	O	0.0068	0.7731	0.340133
Siz_556	Si	0.2223	0.965567	0.375233
Oa_557	O	0.2499	0.916567	0.369
Oz_558	O	0.326533	0.9932	0.560233
Siz_559	Si	0.2989	0.708567	0.555633
Oa_560	O	0.2499	0.702333	0.583233
Oa_561	O	0.326533	0.893567	0.659867
Siz_562	Si	0.0419	0.888967	0.632233
Oa_563	O	0.0356667	0.916567	0.583233
Oz_564	O	0.2269	0.9932	0.659867
Alz_565	Al	0.2989	0.888967	0.375233
Oa_566	O	0.2445	0.7555	0.333333
Oa_567	O	0.283133	0.716867	0.5
Alz_568	Al	0.0419	0.965567	0.555633
Oa_569	O	0.0	0.911167	0.422167
Oa_570	O	0.166667	0.9498	0.383533
Alz_571	Al	0.2223	0.708567	0.632233
Oa_572	O	0.0888333	0.666667	0.577833
Oa_573	O	0.0502	0.833333	0.616467
Siz_574	Si	0.111033	0.7011	0.624767
Siz_575	Si	0.0344333	0.9581	0.444367
Siz_576	Si	0.291433	0.7777	0.367767
Alz_577	Al	0.367767	0.7777	0.624767
Oa_578	O	0.422167	0.911167	0.333333
Oz_579	O	0.383533	0.9498	0.5
Oa_580	O	0.416767	0.7501	0.631
Oa_581	O	0.340133	0.673467	0.439767
Alz_582	Al	0.624767	0.7011	0.444367
Oa_583	O	0.333333	0.7555	0.577833
Oa_584	O	0.5	0.716867	0.616467
Oa_585	O	0.631	0.7501	0.416767
Oa_586	O	0.439767	0.673467	0.340133
Alz_587	Al	0.444367	0.9581	0.367767
Oa_588	O	0.577833	0.666667	0.422167
Oa_589	O	0.616467	0.833333	0.383533
Oa_590	O	0.416767	0.964333	0.416767
Oz_591	O	0.340133	0.7731	0.340133
Siz_592	Si	0.555633	0.965567	0.375233
Oa_593	O	0.583233	0.916567	0.369
Oa_594	O	0.659867	0.9932	0.560233
Siz_595	Si	0.632233	0.708567	0.555633
Oa_596	O	0.583233	0.702333	0.583233
Oa_597	O	0.659867	0.893567	0.659867
Siz_598	Si	0.375233	0.888967	0.632233
Oz_599	O	0.369	0.916567	0.583233
Oa_600	O	0.560233	0.9932	0.659867
Alz_601	Al	0.632233	0.888967	0.375233
Oa_602	O	0.577833	0.7555	0.333333
Oa_603	O	0.616467	0.716867	0.5
Siz_604	Si	0.375233	0.965567	0.555633
Oa_605	O	0.333333	0.911167	0.422167
Oa_606	O	0.5	0.9498	0.383533
Alz_607	Al	0.555633	0.708567	0.632233
Oa_608	O	0.422167	0.666667	0.577833
Oa_609	O	0.383533	0.833333	0.616467
Siz_610	Si	0.444367	0.7011	0.624767
Siz_611	Si	0.367767	0.9581	0.444367
Siz_612	Si	0.624767	0.7777	0.367767
Alz_613	Al	0.7011	0.7777	0.624767
Oa_614	O	0.7555	0.911167	0.333333
Oa_615	O	0.716867	0.9498	0.5
Oa_616	O	0.7501	0.7501	0.631
Oa_617	O	0.673467	0.673467	0.439767
Siz_618	Si	0.9581	0.7011	0.444367
Oa_619	O	0.666667	0.7555	0.577833
Oa_620	O	0.833333	0.716867	0.616467
Oz_621	O	0.964333	0.7501	0.416767
Oz_622	O	0.7731	0.673467	0.340133
Alz_623	Al	0.7777	0.9581	0.367767
Oz_624	O	0.911167	0.666667	0.422167
Oa_625	O	0.9498	0.833333	0.383533
Oa_626	O	0.7501	0.964333	0.416767
Oa_627	O	0.673467	0.7731	0.340133
Siz_628	Si	0.888967	0.965567	0.375233
Oa_629	O	0.916567	0.916567	0.369
Oa_630	O	0.9932	0.9932	0.560233
Siz_631	Si	0.965567	0.708567	0.555633
Oa_632	O	0.916567	0.702333	0.583233
Oz_633	O	0.9932	0.893567	0.659867
Siz_634	Si	0.708567	0.888967	0.632233
Oa_635	O	0.702333	0.916567	0.583233
Oa_636	O	0.893567	0.9932	0.659867
Alz_637	Al	0.965567	0.888967	0.375233
Oa_638	O	0.911167	0.7555	0.333333
Oz_639	O	0.9498	0.716867	0.5
Alz_640	Al	0.708567	0.965567	0.555633
Oa_641	O	0.666667	0.911167	0.422167
Oa_642	O	0.833333	0.9498	0.383533
Alz_643	Al	0.888967	0.708567	0.632233
Oa_644	O	0.7555	0.666667	0.577833
Oa_645	O	0.716867	0.833333	0.616467
Siz_646	Si	0.7777	0.7011	0.624767
Siz_647	Si	0.7011	0.9581	0.444367
Siz_648	Si	0.9581	0.7777	0.367767
Alz_649	Al	0.0344333	0.111033	0.9581
Oa_650	O	0.0888333	0.2445	0.666667
Oa_651	O	0.0502	0.283133	0.833333
Oa_652	O	0.0834333	0.0834333	0.964333
Oa_653	O	0.0068	0.0068	0.7731
Alz_654	Al	0.291433	0.0344333	0.7777
Oa_655	O	0.0	0.0888333	0.911167
Oa_656	O	0.166667	0.0502	0.9498
Oa_657	O	0.297667	0.0834333	0.7501
Oa_658	O	0.106433	0.0068	0.673467
Alz_659	Al	0.111033	0.291433	0.7011
Oa_660	O	0.2445	0.0	0.7555
Oa_661	O	0.283133	0.166667	0.716867
Oa_662	O	0.0834333	0.297667	0.7501
Oz_663	O	0.0068	0.106433	0.673467
Siz_664	Si	0.2223	0.2989	0.708567
Oa_665	O	0.2499	0.2499	0.702333
Oa_666	O	0.326533	0.326533	0.893567
Siz_667	Si	0.2989	0.0419	0.888967
Oa_668	O	0.2499	0.0356667	0.916567
Oa_669	O	0.326533	0.2269	0.9932
Siz_670	Si	0.0419	0.2223	0.965567
Oa_671	O	0.0356667	0.2499	0.916567
Oa_672	O	0.2269	0.326533	0.9932
Alz_673	Al	0.2989	0.2223	0.708567
Oz_674	O	0.2445	0.0888333	0.666667
Oa_675	O	0.283133	0.0502	0.833333
Alz_676	Al	0.0419	0.2989	0.888967
Oa_677	O	0.0	0.2445	0.7555
Oa_678	O	0.166667	0.283133	0.716867
Alz_679	Al	0.2223	0.0419	0.965567
Oa_680	O	0.0888333	0.0	0.911167
Oa_681	O	0.0502	0.166667	0.9498
Siz_682	Si	0.111033	0.0344333	0.9581
Siz_683	Si	0.0344333	0.291433	0.7777
Siz_684	Si	0.291433	0.111033	0.7011
Alz_685	Al	0.367767	0.111033	0.9581
Oa_686	O	0.422167	0.2445	0.666667
Oa_687	O	0.383533	0.283133	0.833333
Oa_688	O	0.416767	0.0834333	0.964333
Oa_689	O	0.340133	0.0068	0.7731
Alz_690	Al	0.624767	0.0344333	0.7777
Oa_691	O	0.333333	0.0888333	0.911167
Oa_692	O	0.5	0.0502	0.9498
Oa_693	O	0.631	0.0834333	0.7501
Oa_694	O	0.439767	0.0068	0.673467
Alz_695	Al	0.444367	0.291433	0.7011
Oa_696	O	0.577833	0.0	0.7555
Oa_697	O	0.616467	0.166667	0.716867
Oa_698	O	0.416767	0.297667	0.7501
Oa_699	O	0.340133	0.106433	0.673467
Siz_700	Si	0.555633	0.2989	0.708567
Oa_701	O	0.583233	0.2499	0.702333
Oa_702	O	0.659867	0.326533	0.893567
Siz_703	Si	0.632233	0.0419	0.888967
Oa_704	O	0.583233	0.0356667	0.916567
Oa_705	O	0.659867	0.2269	0.9932
Siz_706	Si	0.375233	0.2223	0.965567
Oa_707	O	0.369	0.2499	0.916567
Oa_708	O	0.560233	0.326533	0.9932
Alz_709	Al	0.632233	0.2223	0.708567
Oa_710	O	0.577833	0.0888333	0.666667
Oa_711	O	0.616467	0.0502	0.833333
Alz_712	Al	0.375233	0.2989	0.888967
Oa_713	O	0.333333	0.2445	0.7555
Oa_714	O	0.5	0.283133	0.716867
Alz_715	Al	0.555633	0.0419	0.965567
Oa_716	O	0.422167	0.0	0.911167
Oa_717	O	0.383533	0.166667	0.9498
Siz_718	Si	0.444367	0.0344333	0.9581
Siz_719	Si	0.367767	0.291433	0.7777
Siz_720	Si	0.624767	0.111033	0.7011
Alz_721	Al	0.7011	0.111033	0.9581
Oa_722	O	0.7555	0.2445	0.666667
Oa_723	O	0.716867	0.283133	0.833333
Oa_724	O	0.7501	0.0834333	0.964333
Oa_725	O	0.673467	0.0068	0.7731
Alz_726	Al	0.9581	0.0344333	0.7777
Oa_727	O	0.666667	0.0888333	0.911167
Oz_728	O	0.833333	0.0502	0.9498
Oa_729	O	0.964333	0.0834333	0.7501
Oa_730	O	0.7731	0.0068	0.673467
Alz_731	Al	0.7777	0.291433	0.7011
Oa_732	O	0.911167	0.0	0.7555
Oa_733	O	0.9498	0.166667	0.716867
Oa_734	O	0.7501	0.297667	0.7501
Oa_735	O	0.673467	0.106433	0.673467
Siz_736	Si	0.888967	0.2989	0.708567
Oa_737	O	0.916567	0.2499	0.702333
Oa_738	O	0.9932	0.326533	0.893567
Siz_739	Si	0.965567	0.0419	0.888967
Oz_740	O	0.916567	0.0356667	0.916567
Oz_741	O	0.9932	0.2269	0.9932
Siz_742	Si	0.708567	0.2223	0.965567
Oa_743	O	0.702333	0.2499	0.916567
Oz_744	O	0.893567	0.326533	0.9932
Alz_745	Al	0.965567	0.2223	0.708567
Oa_746	O	0.911167	0.0888333	0.666667
Oa_747	O	0.9498	0.0502	0.833333
Alz_748	Al	0.708567	0.2989	0.888967
Oa_749	O	0.666667	0.2445	0.7555
Oa_750	O	0.833333	0.283133	0.716867
Siz_751	Si	0.888967	0.0419	0.965567
Oa_752	O	0.7555	0.0	0.911167
Oa_753	O	0.716867	0.166667	0.9498
Siz_754	Si	0.7777	0.0344333	0.9581
Siz_755	Si	0.7011	0.291433	0.7777
Siz_756	Si	0.9581	0.111033	0.7011
Alz_757	Al	0.0344333	0.444367	0.9581
Oa_758	O	0.0888333	0.577833	0.666667
Oz_759	O	0.0502	0.616467	0.833333
Oa_760	O	0.0834333	0.416767	0.964333
Oz_761	O	0.0068	0.340133	0.7731
Alz_762	Al	0.291433	0.367767	0.7777
Oa_763	O	0.0	0.422167	0.911167
Oa_764	O	0.166667	0.383533	0.9498
Oa_765	O	0.297667	0.416767	0.7501
Oa_766	O	0.106433	0.340133	0.673467
Alz_767	Al	0.111033	0.624767	0.7011
Oa_768	O	0.2445	0.333333	0.7555
Oa_769	O	0.283133	0.5	0.716867
Oa_770	O	0.0834333	0.631	0.7501
Oa_771	O	0.0068	0.439767	0.673467
Siz_772	Si	0.2223	0.632233	0.708567
Oa_773	O	0.2499	0.583233	0.702333
Oa_774	O	0.326533	0.659867	0.893567
Siz_775	Si	0.2989	0.375233	0.888967
Oa_776	O	0.2499	0.369	0.916567
Oa_777	O	0.326533	0.560233	0.9932
Siz_778	Si	0.0419	0.555633	0.965567
Oz_779	O	0.0356667	0.583233	0.916567
Oa_780	O	0.2269	0.659867	0.9932
Alz_781	Al	0.2989	0.555633	0.708567
Oa_782	O	0.2445	0.422167	0.666667
Oa_783	O	0.283133	0.383533	0.833333
Siz_784	Si	0.0419	0.632233	0.888967
Oa_785	O	0.0	0.577833	0.7555
Oa_786	O	0.166667	0.616467	0.716867
Alz_787	Al	0.2223	0.375233	0.965567
Oa_788	O	0.0888333	0.333333	0.911167
Oa_789	O	0.0502	0.5	0.9498
Siz_790	Si	0.111033	0.367767	0.9581
Siz_791	Si	0.0344333	0.624767	0.7777
Siz_792	Si	0.291433	0.444367	0.7011
Alz_793	Al	0.367767	0.444367	0.9581
Oa_794	O	0.422167	0.577833	0.666667
Oa_795	O	0.383533	0.616467	0.833333
Oa_796	O	0.416767	0.416767	0.964333
Oa_797	O	0.340133	0.340133	0.7731
Siz_798	Si	0.624767	0.367767	0.7777
Oa_799	O	0.333333	0.422167	0.911167
Oa_800	O	0.5	0.383533	0.9498
Oz_801	O	0.631	0.416767	0.7501
Oa_802	O	0.439767	0.340133	0.673467
Alz_803	Al	0.444367	0.624767	0.7011
Oz_804	O	0.577833	0.333333	0.7555
Oa_805	O	0.616467	0.5	0.716867
Oa_806	O	0.416767	0.631	0.7501
Oa_807	O	0.340133	0.439767	0.673467
Siz_808	Si	0.555633	0.632233	0.708567
Oa_809	O	0.583233	0.583233	0.702333
Oa_810	O	0.659867	0.659867	0.893567
Siz_811	Si	0.632233	0.375233	0.888967
Oa_812	O	0.583233	0.369	0.916567
Oa_813	O	0.659867	0.560233	0.9932
Siz_814	Si	0.375233	0.555633	0.965567
Oa_815	O	0.369	0.583233	0.916567
Oa_816	O	0.560233	0.659867	0.9932
Alz_817	Al	0.632233	0.555633	0.708567
Oa_818	O	0.577833	0.422167	0.666667
Oz_819	O	0.616467	0.383533	0.833333
Alz_820	Al	0.375233	0.632233	0.888967
Oa_821	O	0.333333	0.577833	0.7555
Oa_822	O	0.5	0.616467	0.716867
Alz_823	Al	0.555633	0.375233	0.965567
Oa_824	O	0.422167	0.333333	0.911167
Oa_825	O	0.383533	0.5	0.9498
Siz_826	Si	0.444367	0.367767	0.9581
Siz_827	Si	0.367767	0.624767	0.7777
Siz_828	Si	0.624767	0.444367	0.7011
Alz_829	Al	0.7011	0.444367	0.9581
Oz_830	O	0.7555	0.577833	0.666667
Oa_831	O	0.716867	0.616467	0.833333
Oa_832	O	0.7501	0.416767	0.964333
Oz_833	O	0.673467	0.340133	0.7731
Siz_834	Si	0.9581	0.367767	0.7777
Oa_835	O	0.666667	0.422167	0.911167
Oz_836	O	0.833333	0.383533	0.9498
Oz_837	O	0.964333	0.416767	0.7501
Oa_838	O	0.7731	0.340133	0.673467
Siz_839	Si	0.7777	0.624767	0.7011
Oz_840	O	0.911167	0.333333	0.7555
Oa_841	O	0.9498	0.5	0.716867
Oz_842	O	0.7501	0.631	0.7501
Oa_843	O	0.673467	0.439767	0.673467
Siz_844	Si	0.888967	0.632233	0.708567
Oa_845	O	0.916567	0.583233	0.702333
Oz_846	O	0.9932	0.659867	0.893567
Siz_847	Si	0.965567	0.375233	0.888967
Oz_848	O	0.916567	0.369	0.916567
Oa_849	O	0.9932	0.560233	0.9932
Siz_850	Si	0.708567	0.555633	0.965567
Oa_851	O	0.702333	0.583233	0.916567
Oa_852	O	0.893567	0.659867	0.9932
Alz_853	Al	0.965567	0.555633	0.708567
Oz_854	O	0.911167	0.422167	0.666667
Oz_855	O	0.9498	0.383533	0.833333
Alz_856	Al	0.708567	0.632233	0.888967
Oa_857	O	0.666667	0.577833	0.7555
Oz_858	O	0.833333	0.616467	0.716867
Siz_859	Si	0.888967	0.375233	0.965567
Oa_860	O	0.7555	0.333333	0.911167
Oa_861	O	0.716867	0.5	0.9498
Siz_862	Si	0.7777	0.367767	0.9581
Siz_863	Si	0.7011	0.624767	0.7777
Siz_864	Si	0.9581	0.444367	0.7011
Alz_865	Al	0.0344333	0.7777	0.9581
Oa_866	O	0.0888333	0.911167	0.666667
Oa_867	O	0.0502	0.9498	0.833333
Oa_868	O	0.0834333	0.7501	0.964333
Oa_869	O	0.0068	0.673467	0.7731
Alz_870	Al	0.291433	0.7011	0.7777
Oa_871	O	0.0	0.7555	0.911167
Oa_872	O	0.166667	0.716867	0.9498
Oa_873	O	0.297667	0.7501	0.7501
Oa_874	O	0.106433	0.673467	0.673467
Alz_875	Al	0.111033	0.9581	0.7011
Oa_876	O	0.2445	0.666667	0.7555
Oa_877	O	0.283133	0.833333	0.716867
Oa_878	O	0.0834333	0.964333	0.7501
Oa_879	O	0.0068	0.7731	0.673467
Siz_880	Si	0.2223	0.965567	0.708567
Oa_881	O	0.2499	0.916567	0.702333
Oa_882	O	0.326533	0.9932	0.893567
Siz_883	Si	0.2989	0.708567	0.888967
Oa_884	O	0.2499	0.702333	0.916567
Oa_885	O	0.326533	0.893567	0.9932
Siz_886	Si	0.0419	0.888967	0.965567
Oa_887	O	0.0356667	0.916567	0.916567
Oa_888	O	0.2269	0.9932	0.9932
Alz_889	Al	0.2989	0.888967	0.708567
Oa_890	O	0.2445	0.7555	0.666667
Oa_891	O	0.283133	0.716867	0.833333
Alz_892	Al	0.0419	0.965567	0.888967
Oz_893	O	0.0	0.911167	0.7555
Oa_894	O	0.166667	0.9498	0.716867
Alz_895	Al	0.2223	0.708567	0.965567
Oz_896	O	0.0888333	0.666667	0.911167
Oa_897	O	0.0502	0.833333	0.9498
Siz_898	Si	0.111033	0.7011	0.9581
Siz_899	Si	0.0344333	0.9581	0.7777
Siz_900	Si	0.291433	0.7777	0.7011
Siz_901	Si	0.367767	0.7777	0.9581
Oa_902	O	0.422167	0.911167	0.666667
Oa_903	O	0.383533	0.9498	0.833333
Oz_904	O	0.416767	0.7501	0.964333
Oa_905	O	0.340133	0.673467	0.7731
Alz_906	Al	0.624767	0.7011	0.7777
Oz_907	O	0.333333	0.7555	0.911167
Oa_908	O	0.5	0.716867	0.9498
Oa_909	O	0.631	0.7501	0.7501
Oa_910	O	0.439767	0.673467	0.673467
Alz_911	Al	0.444367	0.9581	0.7011
Oa_912	O	0.577833	0.666667	0.7555
Oa_913	O	0.616467	0.833333	0.716867
Oa_914	O	0.416767	0.964333	0.7501
Oa_915	O	0.340133	0.7731	0.673467
Siz_916	Si	0.555633	0.965567	0.708567
Oa_917	O	0.583233	0.916567	0.702333
Oa_918	O	0.659867	0.9932	0.893567
Siz_919	Si	0.632233	0.708567	0.888967
Oa_920	O	0.583233	0.702333	0.916567
Oa_921	O	0.659867	0.893567	0.9932
Siz_922	Si	0.375233	0.888967	0.965567
Oa_923	O	0.369	0.916567	0.916567
Oa_924	O	0.560233	0.9932	0.9932
Alz_925	Al	0.632233	0.888967	0.708567
Oa_926	O	0.577833	0.7555	0.666667
Oa_927	O	0.616467	0.716867	0.833333
Alz_928	Al	0.375233	0.965567	0.888967
Oa_929	O	0.333333	0.911167	0.7555
Oa_930	O	0.5	0.9498	0.716867
Alz_931	Al	0.555633	0.708567	0.965567
Oa_932	O	0.422167	0.666667	0.911167
Oz_933	O	0.383533	0.833333	0.9498
Siz_934	Si	0.444367	0.7011	0.9581
Siz_935	Si	0.367767	0.9581	0.7777
Siz_936	Si	0.624767	0.7777	0.7011
Siz_937	Si	0.7011	0.7777	0.9581
Oa_938	O	0.7555	0.911167	0.666667
Oa_939	O	0.716867	0.9498	0.833333
Oz_940	O	0.7501	0.7501	0.964333
Oa_941	O	0.673467	0.673467	0.7731
Alz_942	Al	0.9581	0.7011	0.7777
Oz_943	O	0.666667	0.7555	0.911167
Oa_944	O	0.833333	0.716867	0.9498
Oa_945	O	0.964333	0.7501	0.7501
Oz_946	O	0.7731	0.673467	0.673467
Alz_947	Al	0.7777	0.9581	0.7011
Oa_948	O	0.911167	0.666667	0.7555
Oz_949	O	0.9498	0.833333	0.716867
Oa_950	O	0.7501	0.964333	0.7501
Oa_951	O	0.673467	0.7731	0.673467
Siz_952	Si	0.888967	0.965567	0.708567
Oz_953	O	0.916567	0.916567	0.702333
Oa_954	O	0.9932	0.9932	0.893567
Siz_955	Si	0.965567	0.708567	0.888967
Oa_956	O	0.916567	0.702333	0.916567
Oa_957	O	0.9932	0.893567	0.9932
Siz_958	Si	0.708567	0.888967	0.965567
Oa_959	O	0.702333	0.916567	0.916567
Oz_960	O	0.893567	0.9932	0.9932
Siz_961	Si	0.965567	0.888967	0.708567
Oa_962	O	0.911167	0.7555	0.666667
Oa_963	O	0.9498	0.716867	0.833333
Alz_964	Al	0.708567	0.965567	0.888967
Oa_965	O	0.666667	0.911167	0.7555
Oa_966	O	0.833333	0.9498	0.716867
Alz_967	Al	0.888967	0.708567	0.965567
Oa_968	O	0.7555	0.666667	0.911167
Oz_969	O	0.716867	0.833333	0.9498
Siz_970	Si	0.7777	0.7011	0.9581
Siz_971	Si	0.7011	0.9581	0.7777
Siz_972	Si	0.9581	0.7777	0.7011
Na_973	Na	0.286016	0.279561	0.955897
Na_974	Na	0.943388	0.9495	0.288562
Na_975	Na	0.172958	0.126107	0.980133
Na_976	Na	0.211483	0.690044	0.839324
Na_977	Na	0.543371	0.67738	0.495984
Na_978	Na	0.657361	0.132916	0.849139
Na_979	Na	0.507987	0.125065	0.982223
Na_980	Na	0.168676	0.880928	0.012047
Na_981	Na	0.853914	0.698366	0.866394
Na_982	Na	0.0241771	0.512364	0.542754
Na_983	Na	0.28698	0.953841	0.952566
Na_984	Na	0.543388	0.0234121	0.506224
Na_985	Na	0.875548	0.829201	0.0304719
Na_986	Na	0.635268	0.130154	0.156328
Na_987	Na	0.277094	0.610492	0.287747
Na_988	Na	0.061382	0.389728	0.710952
Na_989	Na	0.209642	0.163324	0.349577
Na_990	Na	0.396184	0.705249	0.0626092
Na_991	Na	0.72498	0.396194	0.381714
Na_992	Na	0.211463	0.494185	0.348726
Na_993	Na	0.832242	0.313241	0.456618
Na_994	Na	0.651561	0.850105	0.797974
Na_995	Na	0.501977	0.543118	0.690508
Na_996	Na	0.515387	0.698385	0.866182
Na_997	Na	0.37076	0.060044	0.393796
Na_998	Na	0.619648	0.613185	0.280909
Na_999	Na	0.787501	0.303229	0.827773
Na_1000	Na	0.50591	0.689485	0.206323
Na_1001	Na	0.794543	0.178171	0.97907
Na_1002	Na	0.287844	0.289329	0.627792
Na_1003	Na	0.656605	0.788628	0.163911
Na_1004	Na	0.669829	0.880428	0.501228
Na_1005	Na	0.474383	0.269505	0.125998
Na_1006	Na	0.0462253	0.384495	0.397375
Na_1007	Na	0.835349	0.992345	0.786494
Na_1008	Na	0.284567	0.287474	0.289058
Na_1009	Na	0.313672	0.843186	0.120577
Na_1010	Na	0.0204465	0.874783	0.510582
Na_1011	Na	0.214665	0.680431	0.173832
Na_1012	Na	0.716713	0.0629473	0.0563022
Na_1013	Na	0.709964	0.380415	0.0493928
Na_1014	Na	0.496745	0.789391	0.645579
Na_1015	Na	0.190061	0.194355	0.696567
Na_1016	Na	0.200902	0.391418	0.529609
Na_1017	Na	0.612198	0.944767	0.293204
Na_1018	Na	0.389934	0.387114	0.0399678
Na_1019	Na	0.364051	0.539452	0.176843
Na_1020	Na	0.680412	0.54291	0.840387
Na_1021	Na	0.27304	0.933939	0.630095
Na_1022	Na	0.0194045	0.839267	0.879469
Na_1023	Na	0.45787	0.987842	0.174469
Na_1024	Na	0.164505	0.545546	0.677433
Na_1025	Na	0.0407564	0.873837	0.186977
Na_1026	Na	0.161529	0.649856	0.462181
Na_1027	Na	0.448956	0.469697	0.923016
Na_1028	Na	0.734599	0.39803	0.710031
Na_1029	Na	0.963213	0.94644	0.939846
Na_1030	Na	0.941092	0.960675	0.611954
Na_1031	Na	0.374279	0.391455	0.389509
Na_1032	Na	0.709215	0.723611	0.391741
Na_1033	Na	0.830291	0.793544	0.307802
Na_1034	Na	0.168257	0.980699	0.456016
Na_1035	Na	0.977557	0.15887	0.45637
Na_1036	Na	0.625775	0.283984	0.617481
Na_1037	Na	0.875819	0.357274	0.170076
Na_1038	Na	0.0531752	0.728376	0.370872
Na_1039	Na	0.690565	0.160234	0.539424
Na_1040	Na	0.689213	0.492893	0.542223
Na_1041	Na	0.82817	0.984622	0.453252
Na_1042	Na	0.727079	0.70504	0.0617233
Na_1043	Na	0.373628	0.538557	0.514267
Na_1044	Na	0.300211	0.613108	0.95044
Na_1045	Na	0.831936	0.673374	0.542506
Na_1046	Na	0.51949	0.389875	0.210681
Na_1047	Na	0.613127	0.615191	0.94718
Na_1048	Na	0.211792	0.343615	0.837092
Na_1049	Na	0.788217	0.823881	0.649867
Na_1050	Na	0.383917	0.706523	0.390962
Na_1051	Na	0.873204	0.693285	0.176064
Na_1052	Na	0.298109	0.954558	0.284948
Na_1053	Na	0.305846	0.130964	0.146584
Na_1054	Na	0.538476	0.163691	0.69196
Na_1055	Na	0.0441052	0.717125	0.723035
Na_1056	Na	0.614103	0.283256	0.948775
Na_1057	Na	0.209356	0.0113811	0.823202
Na_1058	Na	0.708409	0.0440092	0.712936
Na_1059	Na	0.960007	0.268442	0.605966
Na_1060	Na	0.368278	0.173871	0.539424
Na_1061	Na	0.125967	0.264653	0.475433
Na_1062	Na	0.880438	0.503937	0.343199
Na_1063	Na	0.951079	0.620415	0.619253
Na_1064	Na	0.387627	0.0634478	0.714425
Na_1065	Na	0.0127538	0.206518	0.826179
Na_1066	Na	0.051333	0.0465525	0.045637
Na_1067	Na	0.619364	0.61668	0.611529
Na_1068	Na	0.539749	0.515434	0.0488259
Na_1069	Na	0.498021	0.335956	0.550479
Na_1070	Na	0.201902	0.847053	0.356167
Na_1071	Na	0.93046	0.599753	0.960609
Na_1072	Na	0.157645	0.786562	0.644623
Na_1073	Na	0.608563	0.273796	0.29083
Na_1074	Na	0.501632	0.877899	0.0177162
Na_1075	Na	0.38158	0.384104	0.705779
Na_1076	Na	0.379468	0.0495268	0.0503495
Na_1077	Na	0.464664	0.306598	0.822848
Na_1078	Na	0.0456413	0.391835	0.0476567
Na_1079	Na	0.0412932	0.729458	0.060873
Na_1080	Na	0.616068	0.946691	0.943602
Na_1081	Na	0.494801	0.544345	0.35234
Na_1082	Na	0.826683	0.126666	0.637855
Na_1083	Na	0.950444	0.284543	0.292778
Na_1084	Na	0.0226503	0.165369	0.209866
Na_1085	Na	0.785289	0.167395	0.31131
Na_1086	Na	0.315762	0.84775	0.794892
Na_1087	Na	0.780701	0.500024	0.993951
Na_1088	Na	0.870524	0.0494766	0.190272
Na_1089	Na	0.0490197	0.0439162	0.380615
Na_1090	Na	0.057652	0.0377574	0.726365
Na_1091	Na	0.288864	0.623418	0.617411
Na_1092	Na	0.507014	0.874142	0.363927
Na_1093	Na	0.707521	0.0511984	0.383911
Na_1094	Na	0.709366	0.512991	0.201823
Na_1095	Na	0.156447	0.0219696	0.206181
Na_1096	Na	0.972821	0.514626	0.791561
Na_1097	Na	0.613923	0.946461	0.626127
Na_1098	Na	0.327347	0.794063	0.515294
Na_1099	Na	0.973268	0.499287	0.126033
Na_1100	Na	0.707119	0.720269	0.723035
Na_1101	Na	0.499676	0.120134	0.317439
Na_1102	Na	0.324081	0.504447	0.789187
Na_1103	Na	0.156982	0.337839	0.218583
Na_1104	Na	0.181197	0.45977	0.984987
Na_1105	Na	0.348031	0.151925	0.877378
Na_1106	Na	0.48832	0.971573	0.792057
Na_1107	Na	0.38119	0.709144	0.713362


#END
