data_CIT-7_calcined

#*********************************************************************************
#
# Crystallographic Information File for CIT-7, calcined
#
# Reference :
#   Schmidt, J.E., Xie, D., Rea, T. and Davis, M.E.
#   Chem. Sci., 6, 1728-1734, (2015)
#
#
# CIF downloaded from the IZA-SC Database of Zeolite Structures
# Ch. Baerlocher and L.B. McCusker,
# Database of Zeolite Structures: http://www.iza-structure.org/databases/
#
#**********************************************************************************

_cell_length_a		13.0187
_cell_length_b		11.2063
_cell_length_c		9.3758
_cell_angle_alpha		92.82
_cell_angle_beta		107.2
_cell_angle_gamma		103.26

_symmetry_space_group_name_H-M	'P 1'
_symmetry_Int_Tables_number	1
_symmetry_cell_setting	triclinic

loop_
_symmetry_equiv_pos_as_xyz
x,y,z

loop_
_atom_site_label
_atom_site_type_symbol
_atom_site_fract_x
_atom_site_fract_y
_atom_site_fract_z
Oz_1	O	0.2236	0.5059	0.0497
Oz_2	O	0.3564	0.4201	0.2714
Oz_3	O	0.324	0.6411	0.3146
Oz_4	O	0.1662	0.4463	0.286
Oz_5	O	0.3703	0.6646	0.9715
Oz_6	O	0.1691	0.5937	0.7893
Oz_7	O	0.2986	0.4377	0.8372
Oz_8	O	0.3411	0.2514	0.7003
Oz_9	O	0.4275	0.4816	0.665
Oz_10	O	0.2112	0.3738	0.5487
Oz_11	O	0.1312	0.5669	0.4991
Oz_12	O	0.0012	0.3462	0.3897
Oz_13	O	0.3314	0.0139	0.6712
Oz_14	O	0.5093	0.1725	0.6611
Oz_15	O	0.4571	0.1536	0.9168
Oz_16	O	0.4093	0.8471	0.8129
Oz_17	O	0.2014	0.7903	0.6425
Oz_18	O	0.3636	0.8314	0.5162
Oz_19	O	0.4693	0.3106	0.1474
Oz_20	O	0.4992	0.3135	0.4408
Siz_21	Si	0.268	0.5033	0.2286
Siz_22	Si	0.2646	0.5496	0.9108
Siz_23	Si	0.321	0.3874	0.6886
Siz_24	Si	0.1261	0.4313	0.4305
Siz_25	Si	0.4105	0.1493	0.7367
Siz_26	Si	0.3255	0.8692	0.6586
Siz_27	Si	0.1261	0.6529	0.6366
Siz_28	Si	0.4754	0.3911	0.2987
Siz_29	Si	0.4638	0.762	0.9296
Siz_30	Si	0.4203	0.7469	0.4335
Oz_31	O	0.7764	0.4941	0.9503
Oz_32	O	0.6436	0.5799	0.7286
Oz_33	O	0.676	0.3589	0.6854
Oz_34	O	0.8338	0.5537	0.714
Oz_35	O	0.6297	0.3354	0.0285
Oz_36	O	0.8309	0.4063	0.2107
Oz_37	O	0.7014	0.5623	0.1628
Oz_38	O	0.6589	0.7486	0.2997
Oz_39	O	0.5725	0.5184	0.335
Oz_40	O	0.7888	0.6262	0.4513
Oz_41	O	0.8688	0.4331	0.5009
Oz_42	O	0.9988	0.6538	0.6103
Oz_43	O	0.6686	0.9861	0.3288
Oz_44	O	0.4907	0.8275	0.3389
Oz_45	O	0.5429	0.8464	0.0832
Oz_46	O	0.5907	0.1529	0.1871
Oz_47	O	0.7986	0.2097	0.3575
Oz_48	O	0.6364	0.1686	0.4838
Oz_49	O	0.5307	0.6894	0.8526
Oz_50	O	0.5008	0.6865	0.5592
Siz_51	Si	0.732	0.4967	0.7714
Siz_52	Si	0.7354	0.4504	0.0892
Siz_53	Si	0.679	0.6126	0.3114
Siz_54	Si	0.8739	0.5687	0.5695
Siz_55	Si	0.5895	0.8507	0.2633
Siz_56	Si	0.6745	0.1308	0.3414
Siz_57	Si	0.8739	0.3471	0.3634
Siz_58	Si	0.5246	0.6089	0.7013
Siz_59	Si	0.5362	0.238	0.0704
Siz_60	Si	0.5797	0.2531	0.5665

#END
