data_FAU_1.4_03f7b3ba7c1eb20f99372c8276d0bf1b36f99a70a4240c05dd38126b.cif



_cell_length_a		24.2576
_cell_length_b		24.2576
_cell_length_c		24.2576
_cell_angle_alpha		90.0
_cell_angle_beta		90.0
_cell_angle_gamma		90.0

_symmetry_space_group_name_H-M	'P 1'
_symmetry_Int_Tables_number	1
_symmetry_cell_setting	triclinic

loop_
_symmetry_equiv_pos_as_xyz
x,y,z

loop_
_atom_site_label
_atom_site_type_symbol
_atom_site_fract_x
_atom_site_fract_y
_atom_site_fract_z
Alz_1	Al	0.94608	0.1253	0.03589
Oa_2	O	0.0	0.89377	0.10623
Oa_3	O	0.99677	0.99677	0.14066
Oa_4	O	0.0757	0.0757	0.96423
Oa_5	O	0.07063	0.07063	0.32115
Alz_6	Al	0.80392	0.1247	0.53589
Oz_7	O	0.75	0.35623	0.60623
Oz_8	O	0.75323	0.25323	0.64066
Oa_9	O	0.6743	0.1743	0.46423
Oz_10	O	0.67937	0.17937	0.82115
Alz_11	Al	0.30392	0.6253	0.71411
Oa_12	O	0.25	0.39377	0.64377
Oa_13	O	0.25323	0.49677	0.60934
Oa_14	O	0.1743	0.5757	0.78577
Oz_15	O	0.17937	0.57063	0.42885
Siz_16	Si	0.44608	0.6247	0.21411
Oa_17	O	0.5	0.85623	0.14377
Oa_18	O	0.49677	0.75323	0.10934
Oa_19	O	0.5757	0.6743	0.28577
Oa_20	O	0.57063	0.67937	0.92885
Alz_21	Al	0.03589	0.94608	0.1253
Oa_22	O	0.10623	0.0	0.89377
Oa_23	O	0.14066	0.99677	0.99677
Oa_24	O	0.96423	0.0757	0.0757
Oz_25	O	0.32115	0.07063	0.07063
Alz_26	Al	0.53589	0.80392	0.1247
Oa_27	O	0.60623	0.75	0.35623
Oa_28	O	0.64066	0.75323	0.25323
Oz_29	O	0.46423	0.6743	0.1743
Oa_30	O	0.82115	0.67937	0.17937
Siz_31	Si	0.71411	0.30392	0.6253
Oa_32	O	0.64377	0.25	0.39377
Oa_33	O	0.60934	0.25323	0.49677
Oa_34	O	0.78577	0.1743	0.5757
Oa_35	O	0.42885	0.17937	0.57063
Alz_36	Al	0.21411	0.44608	0.6247
Oa_37	O	0.14377	0.5	0.85623
Oa_38	O	0.10934	0.49677	0.75323
Oa_39	O	0.28577	0.5757	0.6743
Oa_40	O	0.92885	0.57063	0.67937
Alz_41	Al	0.1253	0.03589	0.94608
Oa_42	O	0.89377	0.10623	0.0
Oa_43	O	0.99677	0.14066	0.99677
Oa_44	O	0.0757	0.96423	0.0757
Oa_45	O	0.07063	0.32115	0.07063
Alz_46	Al	0.1247	0.53589	0.80392
Oa_47	O	0.35623	0.60623	0.75
Oa_48	O	0.25323	0.64066	0.75323
Oa_49	O	0.1743	0.46423	0.6743
Oa_50	O	0.17937	0.82115	0.67937
Alz_51	Al	0.6253	0.71411	0.30392
Oz_52	O	0.39377	0.64377	0.25
Oz_53	O	0.49677	0.60934	0.25323
Oa_54	O	0.5757	0.78577	0.1743
Oa_55	O	0.57063	0.42885	0.17937
Alz_56	Al	0.6247	0.21411	0.44608
Oa_57	O	0.85623	0.14377	0.5
Oa_58	O	0.75323	0.10934	0.49677
Oz_59	O	0.6743	0.28577	0.5757
Oa_60	O	0.67937	0.92885	0.57063
Siz_61	Si	0.8753	0.19608	0.46411
Oz_62	O	0.74677	0.24677	0.35934
Oz_63	O	0.8257	0.3257	0.53577
Oa_64	O	0.82063	0.32063	0.17885
Siz_65	Si	0.8747	0.05392	0.96411
Oa_66	O	0.00323	0.00323	0.85934
Oa_67	O	0.9243	0.9243	0.03577
Oa_68	O	0.92937	0.92937	0.67885
Siz_69	Si	0.3753	0.55392	0.78589
Oz_70	O	0.24677	0.50323	0.89066
Oa_71	O	0.3257	0.4243	0.71423
Oa_72	O	0.32063	0.42937	0.07115
Siz_73	Si	0.3747	0.69608	0.28589
Oa_74	O	0.50323	0.74677	0.39066
Oa_75	O	0.4243	0.8257	0.21423
Oa_76	O	0.42937	0.82063	0.57115
Siz_77	Si	0.69608	0.28589	0.3747
Oa_78	O	0.74677	0.39066	0.50323
Oz_79	O	0.8257	0.21423	0.4243
Oa_80	O	0.82063	0.57115	0.42937
Siz_81	Si	0.55392	0.78589	0.3753
Oa_82	O	0.50323	0.89066	0.24677
Oa_83	O	0.4243	0.71423	0.3257
Oa_84	O	0.42937	0.07115	0.32063
Siz_85	Si	0.05392	0.96411	0.8747
Oa_86	O	0.00323	0.85934	0.00323
Oa_87	O	0.9243	0.03577	0.9243
Oa_88	O	0.92937	0.67885	0.92937
Siz_89	Si	0.19608	0.46411	0.8753
Oa_90	O	0.24677	0.35934	0.74677
Oz_91	O	0.3257	0.53577	0.8257
Oa_92	O	0.32063	0.17885	0.82063
Siz_93	Si	0.78589	0.3753	0.55392
Oz_94	O	0.89066	0.24677	0.50323
Oa_95	O	0.71423	0.3257	0.4243
Oz_96	O	0.07115	0.32063	0.42937
Siz_97	Si	0.28589	0.3747	0.69608
Oa_98	O	0.39066	0.50323	0.74677
Oa_99	O	0.21423	0.4243	0.8257
Oa_100	O	0.57115	0.42937	0.82063
Siz_101	Si	0.46411	0.8753	0.19608
Oa_102	O	0.35934	0.74677	0.24677
Oa_103	O	0.53577	0.8257	0.3257
Oa_104	O	0.17885	0.82063	0.32063
Siz_105	Si	0.96411	0.8747	0.05392
Oa_106	O	0.85934	0.00323	0.00323
Oa_107	O	0.03577	0.9243	0.9243
Oa_108	O	0.67885	0.92937	0.92937
Alz_109	Al	0.05392	0.8747	0.96411
Oa_110	O	0.0	0.10623	0.89377
Alz_111	Al	0.19608	0.8753	0.46411
Oa_112	O	0.25	0.64377	0.39377
Oa_113	O	0.24677	0.74677	0.35934
Oa_114	O	0.3257	0.8257	0.53577
Oa_115	O	0.32063	0.82063	0.17885
Alz_116	Al	0.69608	0.3747	0.28589
Oa_117	O	0.75	0.60623	0.35623
Oa_118	O	0.74677	0.50323	0.39066
Oa_119	O	0.8257	0.4243	0.21423
Oz_120	O	0.82063	0.42937	0.57115
Alz_121	Al	0.55392	0.3753	0.78589
Oa_122	O	0.5	0.14377	0.85623
Oa_123	O	0.50323	0.24677	0.89066
Oa_124	O	0.4243	0.3257	0.71423
Oa_125	O	0.42937	0.32063	0.07115
Alz_126	Al	0.96411	0.05392	0.8747
Oa_127	O	0.89377	0.0	0.10623
Alz_128	Al	0.46411	0.19608	0.8753
Oa_129	O	0.39377	0.25	0.64377
Oa_130	O	0.35934	0.24677	0.74677
Oa_131	O	0.53577	0.3257	0.8257
Oa_132	O	0.17885	0.32063	0.82063
Alz_133	Al	0.28589	0.69608	0.3747
Oa_134	O	0.35623	0.75	0.60623
Oa_135	O	0.39066	0.74677	0.50323
Oa_136	O	0.21423	0.8257	0.4243
Oa_137	O	0.57115	0.82063	0.42937
Alz_138	Al	0.78589	0.55392	0.3753
Oa_139	O	0.85623	0.5	0.14377
Oa_140	O	0.89066	0.50323	0.24677
Oa_141	O	0.71423	0.4243	0.3257
Oa_142	O	0.07115	0.42937	0.32063
Alz_143	Al	0.8747	0.96411	0.05392
Oa_144	O	0.10623	0.89377	0.0
Alz_145	Al	0.8753	0.46411	0.19608
Oa_146	O	0.64377	0.39377	0.25
Oa_147	O	0.74677	0.35934	0.24677
Oa_148	O	0.8257	0.53577	0.3257
Oz_149	O	0.82063	0.17885	0.32063
Alz_150	Al	0.3747	0.28589	0.69608
Oa_151	O	0.60623	0.35623	0.75
Oa_152	O	0.50323	0.39066	0.74677
Oa_153	O	0.4243	0.21423	0.8257
Oa_154	O	0.42937	0.57115	0.82063
Alz_155	Al	0.3753	0.78589	0.55392
Oa_156	O	0.14377	0.85623	0.5
Oa_157	O	0.24677	0.89066	0.50323
Oa_158	O	0.3257	0.71423	0.4243
Oa_159	O	0.32063	0.07115	0.42937
Siz_160	Si	0.1247	0.80392	0.53589
Oa_161	O	0.25323	0.75323	0.64066
Oa_162	O	0.1743	0.6743	0.46423
Oa_163	O	0.17937	0.67937	0.82115
Siz_164	Si	0.1253	0.94608	0.03589
Siz_165	Si	0.6247	0.44608	0.21411
Oa_166	O	0.75323	0.49677	0.10934
Oa_167	O	0.6743	0.5757	0.28577
Oa_168	O	0.67937	0.57063	0.92885
Siz_169	Si	0.6253	0.30392	0.71411
Oa_170	O	0.49677	0.25323	0.60934
Oz_171	O	0.5757	0.1743	0.78577
Oa_172	O	0.57063	0.17937	0.42885
Siz_173	Si	0.30392	0.71411	0.6253
Oa_174	O	0.25323	0.60934	0.49677
Oa_175	O	0.1743	0.78577	0.5757
Oa_176	O	0.17937	0.42885	0.57063
Siz_177	Si	0.44608	0.21411	0.6247
Oa_178	O	0.49677	0.10934	0.75323
Oa_179	O	0.5757	0.28577	0.6743
Oz_180	O	0.57063	0.92885	0.67937
Siz_181	Si	0.94608	0.03589	0.1253
Siz_182	Si	0.80392	0.53589	0.1247
Oa_183	O	0.75323	0.64066	0.25323
Oa_184	O	0.6743	0.46423	0.1743
Oa_185	O	0.67937	0.82115	0.17937
Siz_186	Si	0.21411	0.6247	0.44608
Oa_187	O	0.10934	0.75323	0.49677
Oa_188	O	0.28577	0.6743	0.5757
Oa_189	O	0.92885	0.67937	0.57063
Siz_190	Si	0.71411	0.6253	0.30392
Oa_191	O	0.60934	0.49677	0.25323
Oa_192	O	0.78577	0.5757	0.1743
Oz_193	O	0.42885	0.57063	0.17937
Siz_194	Si	0.53589	0.1247	0.80392
Oz_195	O	0.64066	0.25323	0.75323
Oa_196	O	0.46423	0.1743	0.6743
Oz_197	O	0.82115	0.17937	0.67937
Siz_198	Si	0.03589	0.1253	0.94608
Alz_199	Al	0.94608	0.6253	0.53589
Oa_200	O	0.0	0.39377	0.60623
Oz_201	O	0.99677	0.49677	0.64066
Oz_202	O	0.0757	0.5757	0.46423
Oa_203	O	0.07063	0.57063	0.82115
Alz_204	Al	0.80392	0.6247	0.03589
Oa_205	O	0.75	0.85623	0.10623
Oa_206	O	0.75323	0.75323	0.14066
Oa_207	O	0.6743	0.6743	0.96423
Oa_208	O	0.67937	0.67937	0.32115
Siz_209	Si	0.30392	0.1253	0.21411
Oa_210	O	0.25	0.89377	0.14377
Oa_211	O	0.25323	0.99677	0.10934
Oa_212	O	0.1743	0.0757	0.28577
Oa_213	O	0.17937	0.07063	0.92885
Alz_214	Al	0.44608	0.1247	0.71411
Oa_215	O	0.5	0.35623	0.64377
Siz_216	Si	0.03589	0.44608	0.6253
Oz_217	O	0.10623	0.5	0.39377
Oz_218	O	0.14066	0.49677	0.49677
Oa_219	O	0.96423	0.5757	0.5757
Oa_220	O	0.32115	0.57063	0.57063
Alz_221	Al	0.53589	0.30392	0.6247
Oz_222	O	0.60623	0.25	0.85623
Alz_223	Al	0.71411	0.80392	0.1253
Oa_224	O	0.64377	0.75	0.89377
Oa_225	O	0.60934	0.75323	0.99677
Oa_226	O	0.78577	0.6743	0.0757
Oa_227	O	0.42885	0.67937	0.07063
Alz_228	Al	0.21411	0.94608	0.1247
Oa_229	O	0.14377	0.0	0.35623
Oa_230	O	0.10934	0.99677	0.25323
Oz_231	O	0.28577	0.0757	0.1743
Oa_232	O	0.92885	0.07063	0.17937
Siz_233	Si	0.1253	0.53589	0.44608
Oa_234	O	0.89377	0.60623	0.5
Oa_235	O	0.99677	0.64066	0.49677
Oz_236	O	0.0757	0.46423	0.5757
Oz_237	O	0.07063	0.82115	0.57063
Alz_238	Al	0.1247	0.03589	0.30392
Oz_239	O	0.35623	0.10623	0.25
Oz_240	O	0.25323	0.14066	0.25323
Oa_241	O	0.1743	0.96423	0.1743
Oa_242	O	0.17937	0.32115	0.17937
Siz_243	Si	0.6253	0.21411	0.80392
Oa_244	O	0.39377	0.14377	0.75
Alz_245	Al	0.6247	0.71411	0.94608
Oa_246	O	0.85623	0.64377	0.0
Oa_247	O	0.75323	0.60934	0.99677
Oa_248	O	0.6743	0.78577	0.0757
Oa_249	O	0.67937	0.42885	0.07063
Siz_250	Si	0.8753	0.69608	0.96411
Oz_251	O	0.74677	0.74677	0.85934
Oa_252	O	0.8257	0.8257	0.03577
Oa_253	O	0.82063	0.82063	0.67885
Siz_254	Si	0.8747	0.55392	0.46411
Oa_255	O	0.00323	0.50323	0.35934
Oa_256	O	0.9243	0.4243	0.53577
Oa_257	O	0.92937	0.42937	0.17885
Siz_258	Si	0.3753	0.05392	0.28589
Oa_259	O	0.24677	0.00323	0.39066
Oa_260	O	0.3257	0.9243	0.21423
Oa_261	O	0.32063	0.92937	0.57115
Siz_262	Si	0.3747	0.19608	0.78589
Siz_263	Si	0.69608	0.78589	0.8747
Oa_264	O	0.74677	0.89066	0.00323
Oz_265	O	0.8257	0.71423	0.9243
Oa_266	O	0.82063	0.07115	0.92937
Siz_267	Si	0.55392	0.28589	0.8753
Siz_268	Si	0.05392	0.46411	0.3747
Oa_269	O	0.00323	0.35934	0.50323
Oa_270	O	0.9243	0.53577	0.4243
Oa_271	O	0.92937	0.17885	0.42937
Siz_272	Si	0.19608	0.96411	0.3753
Oa_273	O	0.24677	0.85934	0.24677
Oa_274	O	0.3257	0.03577	0.3257
Oa_275	O	0.32063	0.67885	0.32063
Siz_276	Si	0.78589	0.8753	0.05392
Oa_277	O	0.89066	0.74677	0.00323
Oa_278	O	0.71423	0.8257	0.9243
Oa_279	O	0.07115	0.82063	0.92937
Siz_280	Si	0.28589	0.8747	0.19608
Oa_281	O	0.39066	0.00323	0.24677
Oa_282	O	0.21423	0.9243	0.3257
Oa_283	O	0.57115	0.92937	0.32063
Siz_284	Si	0.46411	0.3753	0.69608
Alz_285	Al	0.96411	0.3747	0.55392
Oz_286	O	0.85934	0.50323	0.50323
Oz_287	O	0.03577	0.4243	0.4243
Oa_288	O	0.67885	0.42937	0.42937
Siz_289	Si	0.05392	0.3747	0.46411
Oa_290	O	0.0	0.60623	0.39377
Siz_291	Si	0.19608	0.3753	0.96411
Oa_292	O	0.25	0.14377	0.89377
Oa_293	O	0.24677	0.24677	0.85934
Oa_294	O	0.3257	0.3257	0.03577
Oa_295	O	0.32063	0.32063	0.67885
Alz_296	Al	0.69608	0.8747	0.78589
Oa_297	O	0.75	0.10623	0.85623
Oa_298	O	0.74677	0.00323	0.89066
Oa_299	O	0.8257	0.9243	0.71423
Oa_300	O	0.82063	0.92937	0.07115
Alz_301	Al	0.55392	0.8753	0.28589
Oa_302	O	0.5	0.64377	0.35623
Alz_303	Al	0.96411	0.55392	0.3747
Oz_304	O	0.89377	0.5	0.60623
Alz_305	Al	0.46411	0.69608	0.3753
Oa_306	O	0.39377	0.75	0.14377
Alz_307	Al	0.28589	0.19608	0.8747
Oa_308	O	0.35623	0.25	0.10623
Oa_309	O	0.39066	0.24677	0.00323
Oz_310	O	0.21423	0.3257	0.9243
Oa_311	O	0.57115	0.32063	0.92937
Alz_312	Al	0.78589	0.05392	0.8753
Oa_313	O	0.85623	0.0	0.64377
Oa_314	O	0.89066	0.00323	0.74677
Oa_315	O	0.71423	0.9243	0.8257
Oa_316	O	0.07115	0.92937	0.82063
Siz_317	Si	0.8747	0.46411	0.55392
Oz_318	O	0.10623	0.39377	0.5
Alz_319	Al	0.8753	0.96411	0.69608
Oa_320	O	0.64377	0.89377	0.75
Oa_321	O	0.74677	0.85934	0.74677
Oa_322	O	0.8257	0.03577	0.8257
Oz_323	O	0.82063	0.67885	0.82063
Alz_324	Al	0.3747	0.78589	0.19608
Oa_325	O	0.60623	0.85623	0.25
Alz_326	Al	0.3753	0.28589	0.05392
Oz_327	O	0.14377	0.35623	0.0
Oz_328	O	0.24677	0.39066	0.00323
Oa_329	O	0.3257	0.21423	0.9243
Oz_330	O	0.32063	0.57115	0.92937
Siz_331	Si	0.1247	0.30392	0.03589
Oa_332	O	0.25323	0.25323	0.14066
Oa_333	O	0.1743	0.1743	0.96423
Oa_334	O	0.17937	0.17937	0.32115
Siz_335	Si	0.1253	0.44608	0.53589
Siz_336	Si	0.6247	0.94608	0.71411
Oa_337	O	0.75323	0.99677	0.60934
Oa_338	O	0.6743	0.0757	0.78577
Oa_339	O	0.67937	0.07063	0.42885
Siz_340	Si	0.6253	0.80392	0.21411
Siz_341	Si	0.30392	0.21411	0.1253
Oz_342	O	0.25323	0.10934	0.99677
Oa_343	O	0.1743	0.28577	0.0757
Oa_344	O	0.17937	0.92885	0.07063
Siz_345	Si	0.44608	0.71411	0.1247
Siz_346	Si	0.94608	0.53589	0.6253
Siz_347	Si	0.80392	0.03589	0.6247
Oz_348	O	0.75323	0.14066	0.75323
Oa_349	O	0.6743	0.96423	0.6743
Oz_350	O	0.67937	0.32115	0.67937
Siz_351	Si	0.21411	0.1247	0.94608
Oa_352	O	0.10934	0.25323	0.99677
Oz_353	O	0.28577	0.1743	0.0757
Oa_354	O	0.92885	0.17937	0.07063
Siz_355	Si	0.71411	0.1253	0.80392
Oa_356	O	0.60934	0.99677	0.75323
Oz_357	O	0.78577	0.0757	0.6743
Oa_358	O	0.42885	0.07063	0.67937
Siz_359	Si	0.53589	0.6247	0.30392
Siz_360	Si	0.03589	0.6253	0.44608
Alz_361	Al	0.44608	0.1253	0.53589
Oz_362	O	0.5	0.89377	0.60623
Oz_363	O	0.49677	0.99677	0.64066
Oa_364	O	0.5757	0.0757	0.46423
Oa_365	O	0.57063	0.07063	0.82115
Siz_366	Si	0.30392	0.1247	0.03589
Oa_367	O	0.25	0.35623	0.10623
Alz_368	Al	0.80392	0.6253	0.21411
Oa_369	O	0.75	0.39377	0.14377
Alz_370	Al	0.94608	0.6247	0.71411
Oz_371	O	0.0	0.85623	0.64377
Oz_372	O	0.99677	0.75323	0.60934
Oa_373	O	0.0757	0.6743	0.78577
Oa_374	O	0.07063	0.67937	0.42885
Siz_375	Si	0.53589	0.94608	0.6253
Oa_376	O	0.60623	0.0	0.39377
Oa_377	O	0.64066	0.99677	0.49677
Oa_378	O	0.46423	0.0757	0.5757
Oa_379	O	0.82115	0.07063	0.57063
Siz_380	Si	0.03589	0.80392	0.6247
Oa_381	O	0.10623	0.75	0.85623
Oa_382	O	0.14066	0.75323	0.75323
Oa_383	O	0.96423	0.6743	0.6743
Oa_384	O	0.32115	0.67937	0.67937
Alz_385	Al	0.21411	0.30392	0.1253
Oa_386	O	0.14377	0.25	0.89377
Alz_387	Al	0.71411	0.44608	0.1247
Oa_388	O	0.64377	0.5	0.35623
Alz_389	Al	0.6253	0.03589	0.44608
Oa_390	O	0.39377	0.10623	0.5
Oa_391	O	0.49677	0.14066	0.49677
Oz_392	O	0.5757	0.96423	0.5757
Oa_393	O	0.57063	0.32115	0.57063
Alz_394	Al	0.6247	0.53589	0.30392
Oa_395	O	0.85623	0.60623	0.25
Alz_396	Al	0.1253	0.71411	0.80392
Oa_397	O	0.89377	0.64377	0.75
Oa_398	O	0.99677	0.60934	0.75323
Oz_399	O	0.0757	0.78577	0.6743
Oz_400	O	0.07063	0.42885	0.67937
Alz_401	Al	0.1247	0.21411	0.94608
Oz_402	O	0.35623	0.14377	0.0
Siz_403	Si	0.3753	0.19608	0.96411
Siz_404	Si	0.3747	0.05392	0.46411
Oa_405	O	0.50323	0.00323	0.35934
Oa_406	O	0.4243	0.9243	0.53577
Oa_407	O	0.42937	0.92937	0.17885
Siz_408	Si	0.8753	0.55392	0.28589
Siz_409	Si	0.8747	0.69608	0.78589
Oa_410	O	0.00323	0.74677	0.89066
Oa_411	O	0.9243	0.8257	0.71423
Oa_412	O	0.92937	0.82063	0.07115
Siz_413	Si	0.19608	0.28589	0.8747
Siz_414	Si	0.05392	0.78589	0.8753
Oa_415	O	0.00323	0.89066	0.74677
Oa_416	O	0.9243	0.71423	0.8257
Oa_417	O	0.92937	0.07115	0.82063
Siz_418	Si	0.55392	0.96411	0.3747
Oa_419	O	0.50323	0.85934	0.50323
Oa_420	O	0.4243	0.03577	0.4243
Oa_421	O	0.42937	0.67885	0.42937
Siz_422	Si	0.69608	0.46411	0.3753
Siz_423	Si	0.28589	0.3753	0.05392
Siz_424	Si	0.78589	0.3747	0.19608
Siz_425	Si	0.96411	0.8753	0.69608
Oa_426	O	0.85934	0.74677	0.74677
Oa_427	O	0.03577	0.8257	0.8257
Oa_428	O	0.67885	0.82063	0.82063
Siz_429	Si	0.46411	0.8747	0.55392
Oa_430	O	0.35934	0.00323	0.50323
Oa_431	O	0.53577	0.9243	0.4243
Oa_432	O	0.17885	0.92937	0.42937
Alz_433	Al	0.55392	0.8747	0.46411
Oa_434	O	0.5	0.10623	0.39377
Alz_435	Al	0.69608	0.8753	0.96411
Oz_436	O	0.75	0.64377	0.89377
Alz_437	Al	0.19608	0.3747	0.78589
Oz_438	O	0.25	0.60623	0.85623
Alz_439	Al	0.05392	0.3753	0.28589
Oa_440	O	0.0	0.14377	0.35623
Oa_441	O	0.00323	0.24677	0.39066
Oa_442	O	0.9243	0.3257	0.21423
Oa_443	O	0.92937	0.32063	0.57115
Alz_444	Al	0.46411	0.05392	0.3747
Oa_445	O	0.39377	0.0	0.60623
Alz_446	Al	0.96411	0.19608	0.3753
Oa_447	O	0.89377	0.25	0.14377
Oa_448	O	0.85934	0.24677	0.24677
Oa_449	O	0.03577	0.3257	0.3257
Oa_450	O	0.67885	0.32063	0.32063
Siz_451	Si	0.78589	0.69608	0.8747
Oa_452	O	0.85623	0.75	0.10623
Siz_453	Si	0.28589	0.55392	0.8753
Oa_454	O	0.35623	0.5	0.64377
Alz_455	Al	0.3747	0.96411	0.55392
Oa_456	O	0.60623	0.89377	0.5
Alz_457	Al	0.3753	0.46411	0.69608
Oa_458	O	0.14377	0.39377	0.75
Alz_459	Al	0.8747	0.28589	0.19608
Oa_460	O	0.10623	0.35623	0.25
Oa_461	O	0.00323	0.39066	0.24677
Oa_462	O	0.9243	0.21423	0.3257
Oa_463	O	0.92937	0.57115	0.32063
Alz_464	Al	0.8753	0.78589	0.05392
Oa_465	O	0.64377	0.85623	0.0
Siz_466	Si	0.6247	0.80392	0.03589
Siz_467	Si	0.6253	0.94608	0.53589
Siz_468	Si	0.1247	0.44608	0.71411
Siz_469	Si	0.1253	0.30392	0.21411
Oa_470	O	0.99677	0.25323	0.10934
Oa_471	O	0.0757	0.1743	0.28577
Oa_472	O	0.07063	0.17937	0.92885
Siz_473	Si	0.80392	0.71411	0.1253
Siz_474	Si	0.94608	0.21411	0.1247
Oa_475	O	0.99677	0.10934	0.25323
Oa_476	O	0.0757	0.28577	0.1743
Oa_477	O	0.07063	0.92885	0.17937
Siz_478	Si	0.44608	0.03589	0.6253
Siz_479	Si	0.30392	0.53589	0.6247
Siz_480	Si	0.71411	0.6247	0.94608
Siz_481	Si	0.21411	0.6253	0.80392
Siz_482	Si	0.03589	0.1247	0.30392
Oa_483	O	0.14066	0.25323	0.25323
Oa_484	O	0.96423	0.1743	0.1743
Oz_485	O	0.32115	0.17937	0.17937
Siz_486	Si	0.53589	0.1253	0.44608
Alz_487	Al	0.44608	0.6253	0.03589
Oa_488	O	0.5	0.39377	0.10623
Oa_489	O	0.49677	0.49677	0.14066
Oa_490	O	0.5757	0.5757	0.96423
Oa_491	O	0.57063	0.57063	0.32115
Alz_492	Al	0.30392	0.6247	0.53589
Oa_493	O	0.25	0.85623	0.60623
Siz_494	Si	0.80392	0.1253	0.71411
Oa_495	O	0.75	0.89377	0.64377
Alz_496	Al	0.94608	0.1247	0.21411
Oa_497	O	0.0	0.35623	0.14377
Alz_498	Al	0.53589	0.44608	0.1253
Oa_499	O	0.60623	0.5	0.89377
Oa_500	O	0.64066	0.49677	0.99677
Oa_501	O	0.46423	0.5757	0.0757
Oa_502	O	0.82115	0.57063	0.07063
Alz_503	Al	0.03589	0.30392	0.1247
Oa_504	O	0.10623	0.25	0.35623
Alz_505	Al	0.21411	0.80392	0.6253
Oa_506	O	0.14377	0.75	0.39377
Alz_507	Al	0.71411	0.94608	0.6247
Oa_508	O	0.64377	0.0	0.85623
Alz_509	Al	0.6253	0.53589	0.94608
Oa_510	O	0.39377	0.60623	0.0
Oa_511	O	0.49677	0.64066	0.99677
Oa_512	O	0.5757	0.46423	0.0757
Oa_513	O	0.57063	0.82115	0.07063
Alz_514	Al	0.6247	0.03589	0.80392
Oz_515	O	0.85623	0.10623	0.75
Alz_516	Al	0.1253	0.21411	0.30392
Oa_517	O	0.89377	0.14377	0.25
Alz_518	Al	0.1247	0.71411	0.44608
Oa_519	O	0.35623	0.64377	0.5
Siz_520	Si	0.3753	0.69608	0.46411
Siz_521	Si	0.3747	0.55392	0.96411
Oa_522	O	0.50323	0.50323	0.85934
Oa_523	O	0.4243	0.4243	0.03577
Oa_524	O	0.42937	0.42937	0.67885
Siz_525	Si	0.8753	0.05392	0.78589
Siz_526	Si	0.8747	0.19608	0.28589
Siz_527	Si	0.19608	0.78589	0.3747
Siz_528	Si	0.05392	0.28589	0.3753
Siz_529	Si	0.55392	0.46411	0.8747
Oa_530	O	0.50323	0.35934	0.00323
Oa_531	O	0.4243	0.53577	0.9243
Oa_532	O	0.42937	0.17885	0.92937
Siz_533	Si	0.69608	0.96411	0.8753
Siz_534	Si	0.28589	0.8753	0.55392
Siz_535	Si	0.78589	0.8747	0.69608
Siz_536	Si	0.96411	0.3753	0.19608
Siz_537	Si	0.46411	0.3747	0.05392
Oa_538	O	0.35934	0.50323	0.00323
Oa_539	O	0.53577	0.4243	0.9243
Oz_540	O	0.17885	0.42937	0.92937
Alz_541	Al	0.55392	0.3747	0.96411
Oa_542	O	0.5	0.60623	0.89377
Alz_543	Al	0.69608	0.3753	0.46411
Oz_544	O	0.75	0.14377	0.39377
Alz_545	Al	0.19608	0.8747	0.28589
Oa_546	O	0.25	0.10623	0.35623
Alz_547	Al	0.05392	0.8753	0.78589
Oa_548	O	0.0	0.64377	0.85623
Alz_549	Al	0.46411	0.55392	0.8747
Oa_550	O	0.39377	0.5	0.10623
Alz_551	Al	0.96411	0.69608	0.8753
Oa_552	O	0.89377	0.75	0.64377
Siz_553	Si	0.78589	0.19608	0.3747
Oz_554	O	0.85623	0.25	0.60623
Alz_555	Al	0.28589	0.05392	0.3753
Oa_556	O	0.35623	0.0	0.14377
Alz_557	Al	0.3747	0.46411	0.05392
Oa_558	O	0.60623	0.39377	0.0
Alz_559	Al	0.3753	0.96411	0.19608
Oa_560	O	0.14377	0.89377	0.25
Alz_561	Al	0.8747	0.78589	0.69608
Oa_562	O	0.10623	0.85623	0.75
Siz_563	Si	0.8753	0.28589	0.55392
Oa_564	O	0.64377	0.35623	0.5
Siz_565	Si	0.6247	0.30392	0.53589
Siz_566	Si	0.6253	0.44608	0.03589
Siz_567	Si	0.1247	0.94608	0.21411
Siz_568	Si	0.1253	0.80392	0.71411
Siz_569	Si	0.80392	0.21411	0.6253
Siz_570	Si	0.94608	0.71411	0.6247
Siz_571	Si	0.44608	0.53589	0.1253
Siz_572	Si	0.30392	0.03589	0.1247
Siz_573	Si	0.71411	0.1247	0.44608
Siz_574	Si	0.21411	0.1253	0.30392
Siz_575	Si	0.03589	0.6247	0.80392
Siz_576	Si	0.53589	0.6253	0.94608


#END
