data_Mini

_cell_length_a		13.0187
_cell_length_b		11.2063
_cell_length_c		9.3758
_cell_angle_alpha		92.82
_cell_angle_beta		107.2
_cell_angle_gamma		103.26

_symmetry_space_group_name_H-M	'P 1'
_symmetry_Int_Tables_number	1
_symmetry_cell_setting	triclinic

loop_
_symmetry_equiv_pos_as_xyz
x,y,z

loop_
_atom_site_label
_atom_site_type_symbol
_atom_site_fract_x
_atom_site_fract_y
_atom_site_fract_z
Oz_1	O	0.2236	0.5059	0.0497

#END
