data_RHO_2_ea6a1750_Na_17305.cif



_cell_length_a		30.062
_cell_length_b		30.062
_cell_length_c		30.062
_cell_angle_alpha		90.0
_cell_angle_beta		90.0
_cell_angle_gamma		90.0

_symmetry_space_group_name_H-M	'P 1'
_symmetry_Int_Tables_number	1
_symmetry_cell_setting	triclinic

loop_
_symmetry_equiv_pos_as_xyz
x,y,z

loop_
_atom_site_label
_atom_site_type_symbol
_atom_site_fract_x
_atom_site_fract_y
_atom_site_fract_z
Alz_1	Al	0.125	0.0521	0.1979
Oa_2	O	0.10535	0.0	0.1917
Oa_3	O	0.0826	0.0826	0.1827
Siz_4	Si	0.375	0.4479	0.1979
Oz_5	O	0.39465	0.0	0.1917
Oz_6	O	0.4174	0.4174	0.1827
Alz_7	Al	0.375	0.0521	0.3021
Oa_8	O	0.39465	0.0	0.3083
Oa_9	O	0.4174	0.0826	0.3173
Alz_10	Al	0.125	0.4479	0.3021
Oa_11	O	0.10535	0.0	0.3083
Oa_12	O	0.0826	0.4174	0.3173
Siz_13	Si	0.1979	0.125	0.0521
Oz_14	O	0.1917	0.10535	0.0
Oz_15	O	0.1827	0.0826	0.0826
Siz_16	Si	0.1979	0.375	0.4479
Oz_17	O	0.1917	0.39465	0.0
Oz_18	O	0.1827	0.4174	0.4174
Alz_19	Al	0.3021	0.375	0.0521
Oa_20	O	0.3083	0.39465	0.0
Oa_21	O	0.3173	0.4174	0.0826
Alz_22	Al	0.3021	0.125	0.4479
Oa_23	O	0.3083	0.10535	0.0
Oa_24	O	0.3173	0.0826	0.4174
Alz_25	Al	0.0521	0.1979	0.125
Oa_26	O	0.0	0.1917	0.10535
Oa_27	O	0.0826	0.1827	0.0826
Siz_28	Si	0.4479	0.1979	0.375
Oz_29	O	0.0	0.1917	0.39465
Oz_30	O	0.4174	0.1827	0.4174
Siz_31	Si	0.0521	0.3021	0.375
Oz_32	O	0.0	0.3083	0.39465
Oz_33	O	0.0826	0.3173	0.4174
Alz_34	Al	0.4479	0.3021	0.125
Oa_35	O	0.0	0.3083	0.10535
Oa_36	O	0.4174	0.3173	0.0826
Alz_37	Al	0.0521	0.125	0.3021
Oa_38	O	0.0	0.10535	0.3083
Oa_39	O	0.0826	0.0826	0.3173
Siz_40	Si	0.4479	0.375	0.3021
Oz_41	O	0.0	0.39465	0.3083
Oz_42	O	0.4174	0.4174	0.3173
Alz_43	Al	0.0521	0.375	0.1979
Oa_44	O	0.0	0.39465	0.1917
Oa_45	O	0.0826	0.4174	0.1827
Alz_46	Al	0.4479	0.125	0.1979
Oa_47	O	0.0	0.10535	0.1917
Oa_48	O	0.4174	0.0826	0.1827
Alz_49	Al	0.125	0.1979	0.4479
Oa_50	O	0.10535	0.1917	0.0
Oa_51	O	0.0826	0.1827	0.4174
Alz_52	Al	0.375	0.1979	0.0521
Oa_53	O	0.39465	0.1917	0.0
Oa_54	O	0.4174	0.1827	0.0826
Siz_55	Si	0.375	0.3021	0.4479
Oz_56	O	0.39465	0.3083	0.0
Oz_57	O	0.4174	0.3173	0.4174
Siz_58	Si	0.125	0.3021	0.0521
Oz_59	O	0.10535	0.3083	0.0
Oz_60	O	0.0826	0.3173	0.0826
Alz_61	Al	0.1979	0.0521	0.375
Oa_62	O	0.1917	0.0	0.39465
Oa_63	O	0.1827	0.0826	0.4174
Alz_64	Al	0.1979	0.4479	0.125
Oa_65	O	0.1917	0.0	0.10535
Oa_66	O	0.1827	0.4174	0.0826
Alz_67	Al	0.3021	0.0521	0.125
Oa_68	O	0.3083	0.0	0.10535
Oa_69	O	0.3173	0.0826	0.0826
Alz_70	Al	0.3021	0.4479	0.375
Oa_71	O	0.3083	0.0	0.39465
Oa_72	O	0.3173	0.4174	0.4174
Siz_73	Si	0.375	0.4479	0.3021
Siz_74	Si	0.125	0.0521	0.3021
Siz_75	Si	0.125	0.4479	0.1979
Siz_76	Si	0.375	0.0521	0.1979
Siz_77	Si	0.3021	0.375	0.4479
Siz_78	Si	0.3021	0.125	0.0521
Siz_79	Si	0.1979	0.125	0.4479
Siz_80	Si	0.1979	0.375	0.0521
Siz_81	Si	0.4479	0.3021	0.375
Siz_82	Si	0.0521	0.3021	0.125
Siz_83	Si	0.4479	0.1979	0.125
Siz_84	Si	0.0521	0.1979	0.375
Siz_85	Si	0.4479	0.375	0.1979
Siz_86	Si	0.0521	0.125	0.1979
Siz_87	Si	0.4479	0.125	0.3021
Siz_88	Si	0.0521	0.375	0.3021
Siz_89	Si	0.375	0.3021	0.0521
Siz_90	Si	0.125	0.3021	0.4479
Siz_91	Si	0.125	0.1979	0.0521
Siz_92	Si	0.375	0.1979	0.4479
Siz_93	Si	0.3021	0.4479	0.125
Siz_94	Si	0.3021	0.0521	0.375
Siz_95	Si	0.1979	0.4479	0.375
Siz_96	Si	0.1979	0.0521	0.125
Oz_97	O	0.35535	0.25	0.4417
Oz_98	O	0.3326	0.3326	0.4327
Oa_99	O	0.14465	0.25	0.4417
Oa_100	O	0.1674	0.1674	0.4327
Oz_101	O	0.14465	0.25	0.0583
Oz_102	O	0.1674	0.3326	0.0673
Oa_103	O	0.35535	0.25	0.0583
Oa_104	O	0.3326	0.1674	0.0673
Oz_105	O	0.4417	0.35535	0.25
Oz_106	O	0.4327	0.3326	0.3326
Oa_107	O	0.4417	0.14465	0.25
Oa_108	O	0.4327	0.1674	0.1674
Oa_109	O	0.0583	0.14465	0.25
Oa_110	O	0.0673	0.1674	0.3326
Oa_111	O	0.0583	0.35535	0.25
Oa_112	O	0.0673	0.3326	0.1674
Oa_113	O	0.25	0.4417	0.35535
Oa_114	O	0.3326	0.4327	0.3326
Oa_115	O	0.25	0.4417	0.14465
Oa_116	O	0.1674	0.4327	0.1674
Oa_117	O	0.25	0.0583	0.14465
Oa_118	O	0.3326	0.0673	0.1674
Oa_119	O	0.25	0.0583	0.35535
Oa_120	O	0.1674	0.0673	0.3326
Oa_121	O	0.25	0.35535	0.0583
Oa_122	O	0.3326	0.3326	0.0673
Oz_123	O	0.25	0.14465	0.0583
Oz_124	O	0.1674	0.1674	0.0673
Oa_125	O	0.25	0.14465	0.4417
Oa_126	O	0.3326	0.1674	0.4327
Oz_127	O	0.25	0.35535	0.4417
Oz_128	O	0.1674	0.3326	0.4327
Oz_129	O	0.35535	0.4417	0.25
Oz_130	O	0.3326	0.4327	0.1674
Oa_131	O	0.14465	0.4417	0.25
Oa_132	O	0.1674	0.4327	0.3326
Oa_133	O	0.14465	0.0583	0.25
Oa_134	O	0.1674	0.0673	0.1674
Oa_135	O	0.35535	0.0583	0.25
Oa_136	O	0.3326	0.0673	0.3326
Oa_137	O	0.4417	0.25	0.14465
Oa_138	O	0.4327	0.3326	0.1674
Oz_139	O	0.4417	0.25	0.35535
Oz_140	O	0.4327	0.1674	0.3326
Oz_141	O	0.0583	0.25	0.35535
Oz_142	O	0.0673	0.3326	0.3326
Oa_143	O	0.0583	0.25	0.14465
Oa_144	O	0.0673	0.1674	0.1674
Alz_145	Al	0.625	0.0521	0.1979
Oa_146	O	0.60535	0.0	0.1917
Oa_147	O	0.5826	0.0826	0.1827
Siz_148	Si	0.875	0.4479	0.1979
Oz_149	O	0.89465	0.0	0.1917
Oz_150	O	0.9174	0.4174	0.1827
Alz_151	Al	0.875	0.0521	0.3021
Oa_152	O	0.89465	0.0	0.3083
Oa_153	O	0.9174	0.0826	0.3173
Alz_154	Al	0.625	0.4479	0.3021
Oa_155	O	0.60535	0.0	0.3083
Oa_156	O	0.5826	0.4174	0.3173
Siz_157	Si	0.6979	0.125	0.0521
Oz_158	O	0.6917	0.10535	0.0
Oz_159	O	0.6827	0.0826	0.0826
Siz_160	Si	0.6979	0.375	0.4479
Oz_161	O	0.6917	0.39465	0.0
Oz_162	O	0.6827	0.4174	0.4174
Alz_163	Al	0.8021	0.375	0.0521
Oa_164	O	0.8083	0.39465	0.0
Oa_165	O	0.8173	0.4174	0.0826
Alz_166	Al	0.8021	0.125	0.4479
Oa_167	O	0.8083	0.10535	0.0
Oa_168	O	0.8173	0.0826	0.4174
Alz_169	Al	0.5521	0.1979	0.125
Oa_170	O	0.5	0.1917	0.10535
Oa_171	O	0.5826	0.1827	0.0826
Siz_172	Si	0.9479	0.1979	0.375
Oz_173	O	0.5	0.1917	0.39465
Oz_174	O	0.9174	0.1827	0.4174
Siz_175	Si	0.5521	0.3021	0.375
Oz_176	O	0.5	0.3083	0.39465
Oz_177	O	0.5826	0.3173	0.4174
Alz_178	Al	0.9479	0.3021	0.125
Oa_179	O	0.5	0.3083	0.10535
Oa_180	O	0.9174	0.3173	0.0826
Alz_181	Al	0.5521	0.125	0.3021
Oa_182	O	0.5	0.10535	0.3083
Oa_183	O	0.5826	0.0826	0.3173
Siz_184	Si	0.9479	0.375	0.3021
Oz_185	O	0.5	0.39465	0.3083
Oz_186	O	0.9174	0.4174	0.3173
Alz_187	Al	0.5521	0.375	0.1979
Oa_188	O	0.5	0.39465	0.1917
Oa_189	O	0.5826	0.4174	0.1827
Alz_190	Al	0.9479	0.125	0.1979
Oa_191	O	0.5	0.10535	0.1917
Oa_192	O	0.9174	0.0826	0.1827
Alz_193	Al	0.625	0.1979	0.4479
Oa_194	O	0.60535	0.1917	0.0
Oa_195	O	0.5826	0.1827	0.4174
Alz_196	Al	0.875	0.1979	0.0521
Oa_197	O	0.89465	0.1917	0.0
Oa_198	O	0.9174	0.1827	0.0826
Siz_199	Si	0.875	0.3021	0.4479
Oz_200	O	0.89465	0.3083	0.0
Oz_201	O	0.9174	0.3173	0.4174
Siz_202	Si	0.625	0.3021	0.0521
Oz_203	O	0.60535	0.3083	0.0
Oz_204	O	0.5826	0.3173	0.0826
Alz_205	Al	0.6979	0.0521	0.375
Oa_206	O	0.6917	0.0	0.39465
Oa_207	O	0.6827	0.0826	0.4174
Alz_208	Al	0.6979	0.4479	0.125
Oa_209	O	0.6917	0.0	0.10535
Oa_210	O	0.6827	0.4174	0.0826
Alz_211	Al	0.8021	0.0521	0.125
Oa_212	O	0.8083	0.0	0.10535
Oa_213	O	0.8173	0.0826	0.0826
Alz_214	Al	0.8021	0.4479	0.375
Oa_215	O	0.8083	0.0	0.39465
Oa_216	O	0.8173	0.4174	0.4174
Siz_217	Si	0.875	0.4479	0.3021
Siz_218	Si	0.625	0.0521	0.3021
Siz_219	Si	0.625	0.4479	0.1979
Siz_220	Si	0.875	0.0521	0.1979
Siz_221	Si	0.8021	0.375	0.4479
Siz_222	Si	0.8021	0.125	0.0521
Siz_223	Si	0.6979	0.125	0.4479
Siz_224	Si	0.6979	0.375	0.0521
Siz_225	Si	0.9479	0.3021	0.375
Siz_226	Si	0.5521	0.3021	0.125
Siz_227	Si	0.9479	0.1979	0.125
Siz_228	Si	0.5521	0.1979	0.375
Siz_229	Si	0.9479	0.375	0.1979
Siz_230	Si	0.5521	0.125	0.1979
Siz_231	Si	0.9479	0.125	0.3021
Siz_232	Si	0.5521	0.375	0.3021
Siz_233	Si	0.875	0.3021	0.0521
Siz_234	Si	0.625	0.3021	0.4479
Siz_235	Si	0.625	0.1979	0.0521
Siz_236	Si	0.875	0.1979	0.4479
Siz_237	Si	0.8021	0.4479	0.125
Siz_238	Si	0.8021	0.0521	0.375
Siz_239	Si	0.6979	0.4479	0.375
Siz_240	Si	0.6979	0.0521	0.125
Oz_241	O	0.85535	0.25	0.4417
Oz_242	O	0.8326	0.3326	0.4327
Oa_243	O	0.64465	0.25	0.4417
Oa_244	O	0.6674	0.1674	0.4327
Oz_245	O	0.64465	0.25	0.0583
Oz_246	O	0.6674	0.3326	0.0673
Oa_247	O	0.85535	0.25	0.0583
Oa_248	O	0.8326	0.1674	0.0673
Oz_249	O	0.9417	0.35535	0.25
Oz_250	O	0.9327	0.3326	0.3326
Oa_251	O	0.9417	0.14465	0.25
Oa_252	O	0.9327	0.1674	0.1674
Oa_253	O	0.5583	0.14465	0.25
Oa_254	O	0.5673	0.1674	0.3326
Oa_255	O	0.5583	0.35535	0.25
Oa_256	O	0.5673	0.3326	0.1674
Oa_257	O	0.75	0.4417	0.35535
Oa_258	O	0.8326	0.4327	0.3326
Oa_259	O	0.75	0.4417	0.14465
Oa_260	O	0.6674	0.4327	0.1674
Oa_261	O	0.75	0.0583	0.14465
Oa_262	O	0.8326	0.0673	0.1674
Oa_263	O	0.75	0.0583	0.35535
Oa_264	O	0.6674	0.0673	0.3326
Oa_265	O	0.75	0.35535	0.0583
Oa_266	O	0.8326	0.3326	0.0673
Oz_267	O	0.75	0.14465	0.0583
Oz_268	O	0.6674	0.1674	0.0673
Oa_269	O	0.75	0.14465	0.4417
Oa_270	O	0.8326	0.1674	0.4327
Oz_271	O	0.75	0.35535	0.4417
Oz_272	O	0.6674	0.3326	0.4327
Oz_273	O	0.85535	0.4417	0.25
Oz_274	O	0.8326	0.4327	0.1674
Oa_275	O	0.64465	0.4417	0.25
Oa_276	O	0.6674	0.4327	0.3326
Oa_277	O	0.64465	0.0583	0.25
Oa_278	O	0.6674	0.0673	0.1674
Oa_279	O	0.85535	0.0583	0.25
Oa_280	O	0.8326	0.0673	0.3326
Oa_281	O	0.9417	0.25	0.14465
Oa_282	O	0.9327	0.3326	0.1674
Oz_283	O	0.9417	0.25	0.35535
Oz_284	O	0.9327	0.1674	0.3326
Oz_285	O	0.5583	0.25	0.35535
Oz_286	O	0.5673	0.3326	0.3326
Oa_287	O	0.5583	0.25	0.14465
Oa_288	O	0.5673	0.1674	0.1674
Alz_289	Al	0.125	0.5521	0.1979
Oa_290	O	0.10535	0.5	0.1917
Oa_291	O	0.0826	0.5826	0.1827
Siz_292	Si	0.375	0.9479	0.1979
Oz_293	O	0.39465	0.5	0.1917
Oz_294	O	0.4174	0.9174	0.1827
Alz_295	Al	0.375	0.5521	0.3021
Oa_296	O	0.39465	0.5	0.3083
Oa_297	O	0.4174	0.5826	0.3173
Alz_298	Al	0.125	0.9479	0.3021
Oa_299	O	0.10535	0.5	0.3083
Oa_300	O	0.0826	0.9174	0.3173
Siz_301	Si	0.1979	0.625	0.0521
Oz_302	O	0.1917	0.60535	0.0
Oz_303	O	0.1827	0.5826	0.0826
Siz_304	Si	0.1979	0.875	0.4479
Oz_305	O	0.1917	0.89465	0.0
Oz_306	O	0.1827	0.9174	0.4174
Alz_307	Al	0.3021	0.875	0.0521
Oa_308	O	0.3083	0.89465	0.0
Oa_309	O	0.3173	0.9174	0.0826
Alz_310	Al	0.3021	0.625	0.4479
Oa_311	O	0.3083	0.60535	0.0
Oa_312	O	0.3173	0.5826	0.4174
Alz_313	Al	0.0521	0.6979	0.125
Oa_314	O	0.0	0.6917	0.10535
Oa_315	O	0.0826	0.6827	0.0826
Siz_316	Si	0.4479	0.6979	0.375
Oz_317	O	0.0	0.6917	0.39465
Oz_318	O	0.4174	0.6827	0.4174
Siz_319	Si	0.0521	0.8021	0.375
Oz_320	O	0.0	0.8083	0.39465
Oz_321	O	0.0826	0.8173	0.4174
Alz_322	Al	0.4479	0.8021	0.125
Oa_323	O	0.0	0.8083	0.10535
Oa_324	O	0.4174	0.8173	0.0826
Alz_325	Al	0.0521	0.625	0.3021
Oa_326	O	0.0	0.60535	0.3083
Oa_327	O	0.0826	0.5826	0.3173
Siz_328	Si	0.4479	0.875	0.3021
Oz_329	O	0.0	0.89465	0.3083
Oz_330	O	0.4174	0.9174	0.3173
Alz_331	Al	0.0521	0.875	0.1979
Oa_332	O	0.0	0.89465	0.1917
Oa_333	O	0.0826	0.9174	0.1827
Alz_334	Al	0.4479	0.625	0.1979
Oa_335	O	0.0	0.60535	0.1917
Oa_336	O	0.4174	0.5826	0.1827
Alz_337	Al	0.125	0.6979	0.4479
Oa_338	O	0.10535	0.6917	0.0
Oa_339	O	0.0826	0.6827	0.4174
Alz_340	Al	0.375	0.6979	0.0521
Oa_341	O	0.39465	0.6917	0.0
Oa_342	O	0.4174	0.6827	0.0826
Siz_343	Si	0.375	0.8021	0.4479
Oz_344	O	0.39465	0.8083	0.0
Oz_345	O	0.4174	0.8173	0.4174
Siz_346	Si	0.125	0.8021	0.0521
Oz_347	O	0.10535	0.8083	0.0
Oz_348	O	0.0826	0.8173	0.0826
Alz_349	Al	0.1979	0.5521	0.375
Oa_350	O	0.1917	0.5	0.39465
Oa_351	O	0.1827	0.5826	0.4174
Alz_352	Al	0.1979	0.9479	0.125
Oa_353	O	0.1917	0.5	0.10535
Oa_354	O	0.1827	0.9174	0.0826
Alz_355	Al	0.3021	0.5521	0.125
Oa_356	O	0.3083	0.5	0.10535
Oa_357	O	0.3173	0.5826	0.0826
Alz_358	Al	0.3021	0.9479	0.375
Oa_359	O	0.3083	0.5	0.39465
Oa_360	O	0.3173	0.9174	0.4174
Siz_361	Si	0.375	0.9479	0.3021
Siz_362	Si	0.125	0.5521	0.3021
Siz_363	Si	0.125	0.9479	0.1979
Siz_364	Si	0.375	0.5521	0.1979
Siz_365	Si	0.3021	0.875	0.4479
Siz_366	Si	0.3021	0.625	0.0521
Siz_367	Si	0.1979	0.625	0.4479
Siz_368	Si	0.1979	0.875	0.0521
Siz_369	Si	0.4479	0.8021	0.375
Siz_370	Si	0.0521	0.8021	0.125
Siz_371	Si	0.4479	0.6979	0.125
Siz_372	Si	0.0521	0.6979	0.375
Siz_373	Si	0.4479	0.875	0.1979
Siz_374	Si	0.0521	0.625	0.1979
Siz_375	Si	0.4479	0.625	0.3021
Siz_376	Si	0.0521	0.875	0.3021
Siz_377	Si	0.375	0.8021	0.0521
Siz_378	Si	0.125	0.8021	0.4479
Siz_379	Si	0.125	0.6979	0.0521
Siz_380	Si	0.375	0.6979	0.4479
Siz_381	Si	0.3021	0.9479	0.125
Siz_382	Si	0.3021	0.5521	0.375
Siz_383	Si	0.1979	0.9479	0.375
Siz_384	Si	0.1979	0.5521	0.125
Oz_385	O	0.35535	0.75	0.4417
Oz_386	O	0.3326	0.8326	0.4327
Oa_387	O	0.14465	0.75	0.4417
Oa_388	O	0.1674	0.6674	0.4327
Oz_389	O	0.14465	0.75	0.0583
Oz_390	O	0.1674	0.8326	0.0673
Oa_391	O	0.35535	0.75	0.0583
Oa_392	O	0.3326	0.6674	0.0673
Oz_393	O	0.4417	0.85535	0.25
Oz_394	O	0.4327	0.8326	0.3326
Oa_395	O	0.4417	0.64465	0.25
Oa_396	O	0.4327	0.6674	0.1674
Oa_397	O	0.0583	0.64465	0.25
Oa_398	O	0.0673	0.6674	0.3326
Oa_399	O	0.0583	0.85535	0.25
Oa_400	O	0.0673	0.8326	0.1674
Oa_401	O	0.25	0.9417	0.35535
Oa_402	O	0.3326	0.9327	0.3326
Oa_403	O	0.25	0.9417	0.14465
Oa_404	O	0.1674	0.9327	0.1674
Oa_405	O	0.25	0.5583	0.14465
Oa_406	O	0.3326	0.5673	0.1674
Oa_407	O	0.25	0.5583	0.35535
Oa_408	O	0.1674	0.5673	0.3326
Oa_409	O	0.25	0.85535	0.0583
Oa_410	O	0.3326	0.8326	0.0673
Oz_411	O	0.25	0.64465	0.0583
Oz_412	O	0.1674	0.6674	0.0673
Oa_413	O	0.25	0.64465	0.4417
Oa_414	O	0.3326	0.6674	0.4327
Oz_415	O	0.25	0.85535	0.4417
Oz_416	O	0.1674	0.8326	0.4327
Oz_417	O	0.35535	0.9417	0.25
Oz_418	O	0.3326	0.9327	0.1674
Oa_419	O	0.14465	0.9417	0.25
Oa_420	O	0.1674	0.9327	0.3326
Oa_421	O	0.14465	0.5583	0.25
Oa_422	O	0.1674	0.5673	0.1674
Oa_423	O	0.35535	0.5583	0.25
Oa_424	O	0.3326	0.5673	0.3326
Oa_425	O	0.4417	0.75	0.14465
Oa_426	O	0.4327	0.8326	0.1674
Oz_427	O	0.4417	0.75	0.35535
Oz_428	O	0.4327	0.6674	0.3326
Oz_429	O	0.0583	0.75	0.35535
Oz_430	O	0.0673	0.8326	0.3326
Oa_431	O	0.0583	0.75	0.14465
Oa_432	O	0.0673	0.6674	0.1674
Alz_433	Al	0.625	0.5521	0.1979
Oa_434	O	0.60535	0.5	0.1917
Oa_435	O	0.5826	0.5826	0.1827
Siz_436	Si	0.875	0.9479	0.1979
Oz_437	O	0.89465	0.5	0.1917
Oz_438	O	0.9174	0.9174	0.1827
Alz_439	Al	0.875	0.5521	0.3021
Oa_440	O	0.89465	0.5	0.3083
Oa_441	O	0.9174	0.5826	0.3173
Alz_442	Al	0.625	0.9479	0.3021
Oa_443	O	0.60535	0.5	0.3083
Oa_444	O	0.5826	0.9174	0.3173
Siz_445	Si	0.6979	0.625	0.0521
Oz_446	O	0.6917	0.60535	0.0
Oz_447	O	0.6827	0.5826	0.0826
Siz_448	Si	0.6979	0.875	0.4479
Oz_449	O	0.6917	0.89465	0.0
Oz_450	O	0.6827	0.9174	0.4174
Alz_451	Al	0.8021	0.875	0.0521
Oa_452	O	0.8083	0.89465	0.0
Oa_453	O	0.8173	0.9174	0.0826
Alz_454	Al	0.8021	0.625	0.4479
Oa_455	O	0.8083	0.60535	0.0
Oa_456	O	0.8173	0.5826	0.4174
Alz_457	Al	0.5521	0.6979	0.125
Oa_458	O	0.5	0.6917	0.10535
Oa_459	O	0.5826	0.6827	0.0826
Siz_460	Si	0.9479	0.6979	0.375
Oz_461	O	0.5	0.6917	0.39465
Oz_462	O	0.9174	0.6827	0.4174
Siz_463	Si	0.5521	0.8021	0.375
Oz_464	O	0.5	0.8083	0.39465
Oz_465	O	0.5826	0.8173	0.4174
Alz_466	Al	0.9479	0.8021	0.125
Oa_467	O	0.5	0.8083	0.10535
Oa_468	O	0.9174	0.8173	0.0826
Alz_469	Al	0.5521	0.625	0.3021
Oa_470	O	0.5	0.60535	0.3083
Oa_471	O	0.5826	0.5826	0.3173
Siz_472	Si	0.9479	0.875	0.3021
Oz_473	O	0.5	0.89465	0.3083
Oz_474	O	0.9174	0.9174	0.3173
Alz_475	Al	0.5521	0.875	0.1979
Oa_476	O	0.5	0.89465	0.1917
Oa_477	O	0.5826	0.9174	0.1827
Alz_478	Al	0.9479	0.625	0.1979
Oa_479	O	0.5	0.60535	0.1917
Oa_480	O	0.9174	0.5826	0.1827
Alz_481	Al	0.625	0.6979	0.4479
Oa_482	O	0.60535	0.6917	0.0
Oa_483	O	0.5826	0.6827	0.4174
Alz_484	Al	0.875	0.6979	0.0521
Oa_485	O	0.89465	0.6917	0.0
Oa_486	O	0.9174	0.6827	0.0826
Siz_487	Si	0.875	0.8021	0.4479
Oz_488	O	0.89465	0.8083	0.0
Oz_489	O	0.9174	0.8173	0.4174
Siz_490	Si	0.625	0.8021	0.0521
Oz_491	O	0.60535	0.8083	0.0
Oz_492	O	0.5826	0.8173	0.0826
Alz_493	Al	0.6979	0.5521	0.375
Oa_494	O	0.6917	0.5	0.39465
Oa_495	O	0.6827	0.5826	0.4174
Alz_496	Al	0.6979	0.9479	0.125
Oa_497	O	0.6917	0.5	0.10535
Oa_498	O	0.6827	0.9174	0.0826
Alz_499	Al	0.8021	0.5521	0.125
Oa_500	O	0.8083	0.5	0.10535
Oa_501	O	0.8173	0.5826	0.0826
Alz_502	Al	0.8021	0.9479	0.375
Oa_503	O	0.8083	0.5	0.39465
Oa_504	O	0.8173	0.9174	0.4174
Siz_505	Si	0.875	0.9479	0.3021
Siz_506	Si	0.625	0.5521	0.3021
Siz_507	Si	0.625	0.9479	0.1979
Siz_508	Si	0.875	0.5521	0.1979
Siz_509	Si	0.8021	0.875	0.4479
Siz_510	Si	0.8021	0.625	0.0521
Siz_511	Si	0.6979	0.625	0.4479
Siz_512	Si	0.6979	0.875	0.0521
Siz_513	Si	0.9479	0.8021	0.375
Siz_514	Si	0.5521	0.8021	0.125
Siz_515	Si	0.9479	0.6979	0.125
Siz_516	Si	0.5521	0.6979	0.375
Siz_517	Si	0.9479	0.875	0.1979
Siz_518	Si	0.5521	0.625	0.1979
Siz_519	Si	0.9479	0.625	0.3021
Siz_520	Si	0.5521	0.875	0.3021
Siz_521	Si	0.875	0.8021	0.0521
Siz_522	Si	0.625	0.8021	0.4479
Siz_523	Si	0.625	0.6979	0.0521
Siz_524	Si	0.875	0.6979	0.4479
Siz_525	Si	0.8021	0.9479	0.125
Siz_526	Si	0.8021	0.5521	0.375
Siz_527	Si	0.6979	0.9479	0.375
Siz_528	Si	0.6979	0.5521	0.125
Oz_529	O	0.85535	0.75	0.4417
Oz_530	O	0.8326	0.8326	0.4327
Oa_531	O	0.64465	0.75	0.4417
Oa_532	O	0.6674	0.6674	0.4327
Oz_533	O	0.64465	0.75	0.0583
Oz_534	O	0.6674	0.8326	0.0673
Oa_535	O	0.85535	0.75	0.0583
Oa_536	O	0.8326	0.6674	0.0673
Oz_537	O	0.9417	0.85535	0.25
Oz_538	O	0.9327	0.8326	0.3326
Oa_539	O	0.9417	0.64465	0.25
Oa_540	O	0.9327	0.6674	0.1674
Oa_541	O	0.5583	0.64465	0.25
Oa_542	O	0.5673	0.6674	0.3326
Oa_543	O	0.5583	0.85535	0.25
Oa_544	O	0.5673	0.8326	0.1674
Oa_545	O	0.75	0.9417	0.35535
Oa_546	O	0.8326	0.9327	0.3326
Oa_547	O	0.75	0.9417	0.14465
Oa_548	O	0.6674	0.9327	0.1674
Oa_549	O	0.75	0.5583	0.14465
Oa_550	O	0.8326	0.5673	0.1674
Oa_551	O	0.75	0.5583	0.35535
Oa_552	O	0.6674	0.5673	0.3326
Oa_553	O	0.75	0.85535	0.0583
Oa_554	O	0.8326	0.8326	0.0673
Oz_555	O	0.75	0.64465	0.0583
Oz_556	O	0.6674	0.6674	0.0673
Oa_557	O	0.75	0.64465	0.4417
Oa_558	O	0.8326	0.6674	0.4327
Oz_559	O	0.75	0.85535	0.4417
Oz_560	O	0.6674	0.8326	0.4327
Oz_561	O	0.85535	0.9417	0.25
Oz_562	O	0.8326	0.9327	0.1674
Oa_563	O	0.64465	0.9417	0.25
Oa_564	O	0.6674	0.9327	0.3326
Oa_565	O	0.64465	0.5583	0.25
Oa_566	O	0.6674	0.5673	0.1674
Oa_567	O	0.85535	0.5583	0.25
Oa_568	O	0.8326	0.5673	0.3326
Oa_569	O	0.9417	0.75	0.14465
Oa_570	O	0.9327	0.8326	0.1674
Oz_571	O	0.9417	0.75	0.35535
Oz_572	O	0.9327	0.6674	0.3326
Oz_573	O	0.5583	0.75	0.35535
Oz_574	O	0.5673	0.8326	0.3326
Oa_575	O	0.5583	0.75	0.14465
Oa_576	O	0.5673	0.6674	0.1674
Alz_577	Al	0.125	0.0521	0.6979
Oa_578	O	0.10535	0.0	0.6917
Oa_579	O	0.0826	0.0826	0.6827
Siz_580	Si	0.375	0.4479	0.6979
Oz_581	O	0.39465	0.0	0.6917
Oz_582	O	0.4174	0.4174	0.6827
Alz_583	Al	0.375	0.0521	0.8021
Oa_584	O	0.39465	0.0	0.8083
Oa_585	O	0.4174	0.0826	0.8173
Alz_586	Al	0.125	0.4479	0.8021
Oa_587	O	0.10535	0.0	0.8083
Oa_588	O	0.0826	0.4174	0.8173
Siz_589	Si	0.1979	0.125	0.5521
Oz_590	O	0.1917	0.10535	0.5
Oz_591	O	0.1827	0.0826	0.5826
Siz_592	Si	0.1979	0.375	0.9479
Oz_593	O	0.1917	0.39465	0.5
Oz_594	O	0.1827	0.4174	0.9174
Alz_595	Al	0.3021	0.375	0.5521
Oa_596	O	0.3083	0.39465	0.5
Oa_597	O	0.3173	0.4174	0.5826
Alz_598	Al	0.3021	0.125	0.9479
Oa_599	O	0.3083	0.10535	0.5
Oa_600	O	0.3173	0.0826	0.9174
Alz_601	Al	0.0521	0.1979	0.625
Oa_602	O	0.0	0.1917	0.60535
Oa_603	O	0.0826	0.1827	0.5826
Siz_604	Si	0.4479	0.1979	0.875
Oz_605	O	0.0	0.1917	0.89465
Oz_606	O	0.4174	0.1827	0.9174
Siz_607	Si	0.0521	0.3021	0.875
Oz_608	O	0.0	0.3083	0.89465
Oz_609	O	0.0826	0.3173	0.9174
Alz_610	Al	0.4479	0.3021	0.625
Oa_611	O	0.0	0.3083	0.60535
Oa_612	O	0.4174	0.3173	0.5826
Alz_613	Al	0.0521	0.125	0.8021
Oa_614	O	0.0	0.10535	0.8083
Oa_615	O	0.0826	0.0826	0.8173
Siz_616	Si	0.4479	0.375	0.8021
Oz_617	O	0.0	0.39465	0.8083
Oz_618	O	0.4174	0.4174	0.8173
Alz_619	Al	0.0521	0.375	0.6979
Oa_620	O	0.0	0.39465	0.6917
Oa_621	O	0.0826	0.4174	0.6827
Alz_622	Al	0.4479	0.125	0.6979
Oa_623	O	0.0	0.10535	0.6917
Oa_624	O	0.4174	0.0826	0.6827
Alz_625	Al	0.125	0.1979	0.9479
Oa_626	O	0.10535	0.1917	0.5
Oa_627	O	0.0826	0.1827	0.9174
Alz_628	Al	0.375	0.1979	0.5521
Oa_629	O	0.39465	0.1917	0.5
Oa_630	O	0.4174	0.1827	0.5826
Siz_631	Si	0.375	0.3021	0.9479
Oz_632	O	0.39465	0.3083	0.5
Oz_633	O	0.4174	0.3173	0.9174
Siz_634	Si	0.125	0.3021	0.5521
Oz_635	O	0.10535	0.3083	0.5
Oz_636	O	0.0826	0.3173	0.5826
Alz_637	Al	0.1979	0.0521	0.875
Oa_638	O	0.1917	0.0	0.89465
Oa_639	O	0.1827	0.0826	0.9174
Alz_640	Al	0.1979	0.4479	0.625
Oa_641	O	0.1917	0.0	0.60535
Oa_642	O	0.1827	0.4174	0.5826
Alz_643	Al	0.3021	0.0521	0.625
Oa_644	O	0.3083	0.0	0.60535
Oa_645	O	0.3173	0.0826	0.5826
Alz_646	Al	0.3021	0.4479	0.875
Oa_647	O	0.3083	0.0	0.89465
Oa_648	O	0.3173	0.4174	0.9174
Siz_649	Si	0.375	0.4479	0.8021
Siz_650	Si	0.125	0.0521	0.8021
Siz_651	Si	0.125	0.4479	0.6979
Siz_652	Si	0.375	0.0521	0.6979
Siz_653	Si	0.3021	0.375	0.9479
Siz_654	Si	0.3021	0.125	0.5521
Siz_655	Si	0.1979	0.125	0.9479
Siz_656	Si	0.1979	0.375	0.5521
Siz_657	Si	0.4479	0.3021	0.875
Siz_658	Si	0.0521	0.3021	0.625
Siz_659	Si	0.4479	0.1979	0.625
Siz_660	Si	0.0521	0.1979	0.875
Siz_661	Si	0.4479	0.375	0.6979
Siz_662	Si	0.0521	0.125	0.6979
Siz_663	Si	0.4479	0.125	0.8021
Siz_664	Si	0.0521	0.375	0.8021
Siz_665	Si	0.375	0.3021	0.5521
Siz_666	Si	0.125	0.3021	0.9479
Siz_667	Si	0.125	0.1979	0.5521
Siz_668	Si	0.375	0.1979	0.9479
Siz_669	Si	0.3021	0.4479	0.625
Siz_670	Si	0.3021	0.0521	0.875
Siz_671	Si	0.1979	0.4479	0.875
Siz_672	Si	0.1979	0.0521	0.625
Oz_673	O	0.35535	0.25	0.9417
Oz_674	O	0.3326	0.3326	0.9327
Oa_675	O	0.14465	0.25	0.9417
Oa_676	O	0.1674	0.1674	0.9327
Oz_677	O	0.14465	0.25	0.5583
Oz_678	O	0.1674	0.3326	0.5673
Oa_679	O	0.35535	0.25	0.5583
Oa_680	O	0.3326	0.1674	0.5673
Oz_681	O	0.4417	0.35535	0.75
Oz_682	O	0.4327	0.3326	0.8326
Oa_683	O	0.4417	0.14465	0.75
Oa_684	O	0.4327	0.1674	0.6674
Oa_685	O	0.0583	0.14465	0.75
Oa_686	O	0.0673	0.1674	0.8326
Oa_687	O	0.0583	0.35535	0.75
Oa_688	O	0.0673	0.3326	0.6674
Oa_689	O	0.25	0.4417	0.85535
Oa_690	O	0.3326	0.4327	0.8326
Oa_691	O	0.25	0.4417	0.64465
Oa_692	O	0.1674	0.4327	0.6674
Oa_693	O	0.25	0.0583	0.64465
Oa_694	O	0.3326	0.0673	0.6674
Oa_695	O	0.25	0.0583	0.85535
Oa_696	O	0.1674	0.0673	0.8326
Oa_697	O	0.25	0.35535	0.5583
Oa_698	O	0.3326	0.3326	0.5673
Oz_699	O	0.25	0.14465	0.5583
Oz_700	O	0.1674	0.1674	0.5673
Oa_701	O	0.25	0.14465	0.9417
Oa_702	O	0.3326	0.1674	0.9327
Oz_703	O	0.25	0.35535	0.9417
Oz_704	O	0.1674	0.3326	0.9327
Oz_705	O	0.35535	0.4417	0.75
Oz_706	O	0.3326	0.4327	0.6674
Oa_707	O	0.14465	0.4417	0.75
Oa_708	O	0.1674	0.4327	0.8326
Oa_709	O	0.14465	0.0583	0.75
Oa_710	O	0.1674	0.0673	0.6674
Oa_711	O	0.35535	0.0583	0.75
Oa_712	O	0.3326	0.0673	0.8326
Oa_713	O	0.4417	0.25	0.64465
Oa_714	O	0.4327	0.3326	0.6674
Oz_715	O	0.4417	0.25	0.85535
Oz_716	O	0.4327	0.1674	0.8326
Oz_717	O	0.0583	0.25	0.85535
Oz_718	O	0.0673	0.3326	0.8326
Oa_719	O	0.0583	0.25	0.64465
Oa_720	O	0.0673	0.1674	0.6674
Alz_721	Al	0.625	0.0521	0.6979
Oa_722	O	0.60535	0.0	0.6917
Oa_723	O	0.5826	0.0826	0.6827
Siz_724	Si	0.875	0.4479	0.6979
Oz_725	O	0.89465	0.0	0.6917
Oz_726	O	0.9174	0.4174	0.6827
Alz_727	Al	0.875	0.0521	0.8021
Oa_728	O	0.89465	0.0	0.8083
Oa_729	O	0.9174	0.0826	0.8173
Alz_730	Al	0.625	0.4479	0.8021
Oa_731	O	0.60535	0.0	0.8083
Oa_732	O	0.5826	0.4174	0.8173
Siz_733	Si	0.6979	0.125	0.5521
Oz_734	O	0.6917	0.10535	0.5
Oz_735	O	0.6827	0.0826	0.5826
Siz_736	Si	0.6979	0.375	0.9479
Oz_737	O	0.6917	0.39465	0.5
Oz_738	O	0.6827	0.4174	0.9174
Alz_739	Al	0.8021	0.375	0.5521
Oa_740	O	0.8083	0.39465	0.5
Oa_741	O	0.8173	0.4174	0.5826
Alz_742	Al	0.8021	0.125	0.9479
Oa_743	O	0.8083	0.10535	0.5
Oa_744	O	0.8173	0.0826	0.9174
Alz_745	Al	0.5521	0.1979	0.625
Oa_746	O	0.5	0.1917	0.60535
Oa_747	O	0.5826	0.1827	0.5826
Siz_748	Si	0.9479	0.1979	0.875
Oz_749	O	0.5	0.1917	0.89465
Oz_750	O	0.9174	0.1827	0.9174
Siz_751	Si	0.5521	0.3021	0.875
Oz_752	O	0.5	0.3083	0.89465
Oz_753	O	0.5826	0.3173	0.9174
Alz_754	Al	0.9479	0.3021	0.625
Oa_755	O	0.5	0.3083	0.60535
Oa_756	O	0.9174	0.3173	0.5826
Alz_757	Al	0.5521	0.125	0.8021
Oa_758	O	0.5	0.10535	0.8083
Oa_759	O	0.5826	0.0826	0.8173
Siz_760	Si	0.9479	0.375	0.8021
Oz_761	O	0.5	0.39465	0.8083
Oz_762	O	0.9174	0.4174	0.8173
Alz_763	Al	0.5521	0.375	0.6979
Oa_764	O	0.5	0.39465	0.6917
Oa_765	O	0.5826	0.4174	0.6827
Alz_766	Al	0.9479	0.125	0.6979
Oa_767	O	0.5	0.10535	0.6917
Oa_768	O	0.9174	0.0826	0.6827
Alz_769	Al	0.625	0.1979	0.9479
Oa_770	O	0.60535	0.1917	0.5
Oa_771	O	0.5826	0.1827	0.9174
Alz_772	Al	0.875	0.1979	0.5521
Oa_773	O	0.89465	0.1917	0.5
Oa_774	O	0.9174	0.1827	0.5826
Siz_775	Si	0.875	0.3021	0.9479
Oz_776	O	0.89465	0.3083	0.5
Oz_777	O	0.9174	0.3173	0.9174
Siz_778	Si	0.625	0.3021	0.5521
Oz_779	O	0.60535	0.3083	0.5
Oz_780	O	0.5826	0.3173	0.5826
Alz_781	Al	0.6979	0.0521	0.875
Oa_782	O	0.6917	0.0	0.89465
Oa_783	O	0.6827	0.0826	0.9174
Alz_784	Al	0.6979	0.4479	0.625
Oa_785	O	0.6917	0.0	0.60535
Oa_786	O	0.6827	0.4174	0.5826
Alz_787	Al	0.8021	0.0521	0.625
Oa_788	O	0.8083	0.0	0.60535
Oa_789	O	0.8173	0.0826	0.5826
Alz_790	Al	0.8021	0.4479	0.875
Oa_791	O	0.8083	0.0	0.89465
Oa_792	O	0.8173	0.4174	0.9174
Siz_793	Si	0.875	0.4479	0.8021
Siz_794	Si	0.625	0.0521	0.8021
Siz_795	Si	0.625	0.4479	0.6979
Siz_796	Si	0.875	0.0521	0.6979
Siz_797	Si	0.8021	0.375	0.9479
Siz_798	Si	0.8021	0.125	0.5521
Siz_799	Si	0.6979	0.125	0.9479
Siz_800	Si	0.6979	0.375	0.5521
Siz_801	Si	0.9479	0.3021	0.875
Siz_802	Si	0.5521	0.3021	0.625
Siz_803	Si	0.9479	0.1979	0.625
Siz_804	Si	0.5521	0.1979	0.875
Siz_805	Si	0.9479	0.375	0.6979
Siz_806	Si	0.5521	0.125	0.6979
Siz_807	Si	0.9479	0.125	0.8021
Siz_808	Si	0.5521	0.375	0.8021
Siz_809	Si	0.875	0.3021	0.5521
Siz_810	Si	0.625	0.3021	0.9479
Siz_811	Si	0.625	0.1979	0.5521
Siz_812	Si	0.875	0.1979	0.9479
Siz_813	Si	0.8021	0.4479	0.625
Siz_814	Si	0.8021	0.0521	0.875
Siz_815	Si	0.6979	0.4479	0.875
Siz_816	Si	0.6979	0.0521	0.625
Oz_817	O	0.85535	0.25	0.9417
Oz_818	O	0.8326	0.3326	0.9327
Oa_819	O	0.64465	0.25	0.9417
Oa_820	O	0.6674	0.1674	0.9327
Oz_821	O	0.64465	0.25	0.5583
Oz_822	O	0.6674	0.3326	0.5673
Oa_823	O	0.85535	0.25	0.5583
Oa_824	O	0.8326	0.1674	0.5673
Oz_825	O	0.9417	0.35535	0.75
Oz_826	O	0.9327	0.3326	0.8326
Oa_827	O	0.9417	0.14465	0.75
Oa_828	O	0.9327	0.1674	0.6674
Oa_829	O	0.5583	0.14465	0.75
Oa_830	O	0.5673	0.1674	0.8326
Oa_831	O	0.5583	0.35535	0.75
Oa_832	O	0.5673	0.3326	0.6674
Oa_833	O	0.75	0.4417	0.85535
Oa_834	O	0.8326	0.4327	0.8326
Oa_835	O	0.75	0.4417	0.64465
Oa_836	O	0.6674	0.4327	0.6674
Oa_837	O	0.75	0.0583	0.64465
Oa_838	O	0.8326	0.0673	0.6674
Oa_839	O	0.75	0.0583	0.85535
Oa_840	O	0.6674	0.0673	0.8326
Oa_841	O	0.75	0.35535	0.5583
Oa_842	O	0.8326	0.3326	0.5673
Oz_843	O	0.75	0.14465	0.5583
Oz_844	O	0.6674	0.1674	0.5673
Oa_845	O	0.75	0.14465	0.9417
Oa_846	O	0.8326	0.1674	0.9327
Oz_847	O	0.75	0.35535	0.9417
Oz_848	O	0.6674	0.3326	0.9327
Oz_849	O	0.85535	0.4417	0.75
Oz_850	O	0.8326	0.4327	0.6674
Oa_851	O	0.64465	0.4417	0.75
Oa_852	O	0.6674	0.4327	0.8326
Oa_853	O	0.64465	0.0583	0.75
Oa_854	O	0.6674	0.0673	0.6674
Oa_855	O	0.85535	0.0583	0.75
Oa_856	O	0.8326	0.0673	0.8326
Oa_857	O	0.9417	0.25	0.64465
Oa_858	O	0.9327	0.3326	0.6674
Oz_859	O	0.9417	0.25	0.85535
Oz_860	O	0.9327	0.1674	0.8326
Oz_861	O	0.5583	0.25	0.85535
Oz_862	O	0.5673	0.3326	0.8326
Oa_863	O	0.5583	0.25	0.64465
Oa_864	O	0.5673	0.1674	0.6674
Alz_865	Al	0.125	0.5521	0.6979
Oa_866	O	0.10535	0.5	0.6917
Oa_867	O	0.0826	0.5826	0.6827
Siz_868	Si	0.375	0.9479	0.6979
Oz_869	O	0.39465	0.5	0.6917
Oz_870	O	0.4174	0.9174	0.6827
Alz_871	Al	0.375	0.5521	0.8021
Oa_872	O	0.39465	0.5	0.8083
Oa_873	O	0.4174	0.5826	0.8173
Alz_874	Al	0.125	0.9479	0.8021
Oa_875	O	0.10535	0.5	0.8083
Oa_876	O	0.0826	0.9174	0.8173
Siz_877	Si	0.1979	0.625	0.5521
Oz_878	O	0.1917	0.60535	0.5
Oz_879	O	0.1827	0.5826	0.5826
Siz_880	Si	0.1979	0.875	0.9479
Oz_881	O	0.1917	0.89465	0.5
Oz_882	O	0.1827	0.9174	0.9174
Alz_883	Al	0.3021	0.875	0.5521
Oa_884	O	0.3083	0.89465	0.5
Oa_885	O	0.3173	0.9174	0.5826
Alz_886	Al	0.3021	0.625	0.9479
Oa_887	O	0.3083	0.60535	0.5
Oa_888	O	0.3173	0.5826	0.9174
Alz_889	Al	0.0521	0.6979	0.625
Oa_890	O	0.0	0.6917	0.60535
Oa_891	O	0.0826	0.6827	0.5826
Siz_892	Si	0.4479	0.6979	0.875
Oz_893	O	0.0	0.6917	0.89465
Oz_894	O	0.4174	0.6827	0.9174
Siz_895	Si	0.0521	0.8021	0.875
Oz_896	O	0.0	0.8083	0.89465
Oz_897	O	0.0826	0.8173	0.9174
Alz_898	Al	0.4479	0.8021	0.625
Oa_899	O	0.0	0.8083	0.60535
Oa_900	O	0.4174	0.8173	0.5826
Alz_901	Al	0.0521	0.625	0.8021
Oa_902	O	0.0	0.60535	0.8083
Oa_903	O	0.0826	0.5826	0.8173
Siz_904	Si	0.4479	0.875	0.8021
Oz_905	O	0.0	0.89465	0.8083
Oz_906	O	0.4174	0.9174	0.8173
Alz_907	Al	0.0521	0.875	0.6979
Oa_908	O	0.0	0.89465	0.6917
Oa_909	O	0.0826	0.9174	0.6827
Alz_910	Al	0.4479	0.625	0.6979
Oa_911	O	0.0	0.60535	0.6917
Oa_912	O	0.4174	0.5826	0.6827
Alz_913	Al	0.125	0.6979	0.9479
Oa_914	O	0.10535	0.6917	0.5
Oa_915	O	0.0826	0.6827	0.9174
Alz_916	Al	0.375	0.6979	0.5521
Oa_917	O	0.39465	0.6917	0.5
Oa_918	O	0.4174	0.6827	0.5826
Siz_919	Si	0.375	0.8021	0.9479
Oz_920	O	0.39465	0.8083	0.5
Oz_921	O	0.4174	0.8173	0.9174
Siz_922	Si	0.125	0.8021	0.5521
Oz_923	O	0.10535	0.8083	0.5
Oz_924	O	0.0826	0.8173	0.5826
Alz_925	Al	0.1979	0.5521	0.875
Oa_926	O	0.1917	0.5	0.89465
Oa_927	O	0.1827	0.5826	0.9174
Alz_928	Al	0.1979	0.9479	0.625
Oa_929	O	0.1917	0.5	0.60535
Oa_930	O	0.1827	0.9174	0.5826
Alz_931	Al	0.3021	0.5521	0.625
Oa_932	O	0.3083	0.5	0.60535
Oa_933	O	0.3173	0.5826	0.5826
Alz_934	Al	0.3021	0.9479	0.875
Oa_935	O	0.3083	0.5	0.89465
Oa_936	O	0.3173	0.9174	0.9174
Siz_937	Si	0.375	0.9479	0.8021
Siz_938	Si	0.125	0.5521	0.8021
Siz_939	Si	0.125	0.9479	0.6979
Siz_940	Si	0.375	0.5521	0.6979
Siz_941	Si	0.3021	0.875	0.9479
Siz_942	Si	0.3021	0.625	0.5521
Siz_943	Si	0.1979	0.625	0.9479
Siz_944	Si	0.1979	0.875	0.5521
Siz_945	Si	0.4479	0.8021	0.875
Siz_946	Si	0.0521	0.8021	0.625
Siz_947	Si	0.4479	0.6979	0.625
Siz_948	Si	0.0521	0.6979	0.875
Siz_949	Si	0.4479	0.875	0.6979
Siz_950	Si	0.0521	0.625	0.6979
Siz_951	Si	0.4479	0.625	0.8021
Siz_952	Si	0.0521	0.875	0.8021
Siz_953	Si	0.375	0.8021	0.5521
Siz_954	Si	0.125	0.8021	0.9479
Siz_955	Si	0.125	0.6979	0.5521
Siz_956	Si	0.375	0.6979	0.9479
Siz_957	Si	0.3021	0.9479	0.625
Siz_958	Si	0.3021	0.5521	0.875
Siz_959	Si	0.1979	0.9479	0.875
Siz_960	Si	0.1979	0.5521	0.625
Oz_961	O	0.35535	0.75	0.9417
Oz_962	O	0.3326	0.8326	0.9327
Oa_963	O	0.14465	0.75	0.9417
Oa_964	O	0.1674	0.6674	0.9327
Oz_965	O	0.14465	0.75	0.5583
Oz_966	O	0.1674	0.8326	0.5673
Oa_967	O	0.35535	0.75	0.5583
Oa_968	O	0.3326	0.6674	0.5673
Oz_969	O	0.4417	0.85535	0.75
Oz_970	O	0.4327	0.8326	0.8326
Oa_971	O	0.4417	0.64465	0.75
Oa_972	O	0.4327	0.6674	0.6674
Oa_973	O	0.0583	0.64465	0.75
Oa_974	O	0.0673	0.6674	0.8326
Oa_975	O	0.0583	0.85535	0.75
Oa_976	O	0.0673	0.8326	0.6674
Oa_977	O	0.25	0.9417	0.85535
Oa_978	O	0.3326	0.9327	0.8326
Oa_979	O	0.25	0.9417	0.64465
Oa_980	O	0.1674	0.9327	0.6674
Oa_981	O	0.25	0.5583	0.64465
Oa_982	O	0.3326	0.5673	0.6674
Oa_983	O	0.25	0.5583	0.85535
Oa_984	O	0.1674	0.5673	0.8326
Oa_985	O	0.25	0.85535	0.5583
Oa_986	O	0.3326	0.8326	0.5673
Oz_987	O	0.25	0.64465	0.5583
Oz_988	O	0.1674	0.6674	0.5673
Oa_989	O	0.25	0.64465	0.9417
Oa_990	O	0.3326	0.6674	0.9327
Oz_991	O	0.25	0.85535	0.9417
Oz_992	O	0.1674	0.8326	0.9327
Oz_993	O	0.35535	0.9417	0.75
Oz_994	O	0.3326	0.9327	0.6674
Oa_995	O	0.14465	0.9417	0.75
Oa_996	O	0.1674	0.9327	0.8326
Oa_997	O	0.14465	0.5583	0.75
Oa_998	O	0.1674	0.5673	0.6674
Oa_999	O	0.35535	0.5583	0.75
Oa_1000	O	0.3326	0.5673	0.8326
Oa_1001	O	0.4417	0.75	0.64465
Oa_1002	O	0.4327	0.8326	0.6674
Oz_1003	O	0.4417	0.75	0.85535
Oz_1004	O	0.4327	0.6674	0.8326
Oz_1005	O	0.0583	0.75	0.85535
Oz_1006	O	0.0673	0.8326	0.8326
Oa_1007	O	0.0583	0.75	0.64465
Oa_1008	O	0.0673	0.6674	0.6674
Alz_1009	Al	0.625	0.5521	0.6979
Oa_1010	O	0.60535	0.5	0.6917
Oa_1011	O	0.5826	0.5826	0.6827
Siz_1012	Si	0.875	0.9479	0.6979
Oz_1013	O	0.89465	0.5	0.6917
Oz_1014	O	0.9174	0.9174	0.6827
Alz_1015	Al	0.875	0.5521	0.8021
Oa_1016	O	0.89465	0.5	0.8083
Oa_1017	O	0.9174	0.5826	0.8173
Alz_1018	Al	0.625	0.9479	0.8021
Oa_1019	O	0.60535	0.5	0.8083
Oa_1020	O	0.5826	0.9174	0.8173
Siz_1021	Si	0.6979	0.625	0.5521
Oz_1022	O	0.6917	0.60535	0.5
Oz_1023	O	0.6827	0.5826	0.5826
Siz_1024	Si	0.6979	0.875	0.9479
Oz_1025	O	0.6917	0.89465	0.5
Oz_1026	O	0.6827	0.9174	0.9174
Alz_1027	Al	0.8021	0.875	0.5521
Oa_1028	O	0.8083	0.89465	0.5
Oa_1029	O	0.8173	0.9174	0.5826
Alz_1030	Al	0.8021	0.625	0.9479
Oa_1031	O	0.8083	0.60535	0.5
Oa_1032	O	0.8173	0.5826	0.9174
Alz_1033	Al	0.5521	0.6979	0.625
Oa_1034	O	0.5	0.6917	0.60535
Oa_1035	O	0.5826	0.6827	0.5826
Siz_1036	Si	0.9479	0.6979	0.875
Oz_1037	O	0.5	0.6917	0.89465
Oz_1038	O	0.9174	0.6827	0.9174
Siz_1039	Si	0.5521	0.8021	0.875
Oz_1040	O	0.5	0.8083	0.89465
Oz_1041	O	0.5826	0.8173	0.9174
Alz_1042	Al	0.9479	0.8021	0.625
Oa_1043	O	0.5	0.8083	0.60535
Oa_1044	O	0.9174	0.8173	0.5826
Alz_1045	Al	0.5521	0.625	0.8021
Oa_1046	O	0.5	0.60535	0.8083
Oa_1047	O	0.5826	0.5826	0.8173
Siz_1048	Si	0.9479	0.875	0.8021
Oz_1049	O	0.5	0.89465	0.8083
Oz_1050	O	0.9174	0.9174	0.8173
Alz_1051	Al	0.5521	0.875	0.6979
Oa_1052	O	0.5	0.89465	0.6917
Oa_1053	O	0.5826	0.9174	0.6827
Alz_1054	Al	0.9479	0.625	0.6979
Oa_1055	O	0.5	0.60535	0.6917
Oa_1056	O	0.9174	0.5826	0.6827
Alz_1057	Al	0.625	0.6979	0.9479
Oa_1058	O	0.60535	0.6917	0.5
Oa_1059	O	0.5826	0.6827	0.9174
Alz_1060	Al	0.875	0.6979	0.5521
Oa_1061	O	0.89465	0.6917	0.5
Oa_1062	O	0.9174	0.6827	0.5826
Siz_1063	Si	0.875	0.8021	0.9479
Oz_1064	O	0.89465	0.8083	0.5
Oz_1065	O	0.9174	0.8173	0.9174
Siz_1066	Si	0.625	0.8021	0.5521
Oz_1067	O	0.60535	0.8083	0.5
Oz_1068	O	0.5826	0.8173	0.5826
Alz_1069	Al	0.6979	0.5521	0.875
Oa_1070	O	0.6917	0.5	0.89465
Oa_1071	O	0.6827	0.5826	0.9174
Alz_1072	Al	0.6979	0.9479	0.625
Oa_1073	O	0.6917	0.5	0.60535
Oa_1074	O	0.6827	0.9174	0.5826
Alz_1075	Al	0.8021	0.5521	0.625
Oa_1076	O	0.8083	0.5	0.60535
Oa_1077	O	0.8173	0.5826	0.5826
Alz_1078	Al	0.8021	0.9479	0.875
Oa_1079	O	0.8083	0.5	0.89465
Oa_1080	O	0.8173	0.9174	0.9174
Siz_1081	Si	0.875	0.9479	0.8021
Siz_1082	Si	0.625	0.5521	0.8021
Siz_1083	Si	0.625	0.9479	0.6979
Siz_1084	Si	0.875	0.5521	0.6979
Siz_1085	Si	0.8021	0.875	0.9479
Siz_1086	Si	0.8021	0.625	0.5521
Siz_1087	Si	0.6979	0.625	0.9479
Siz_1088	Si	0.6979	0.875	0.5521
Siz_1089	Si	0.9479	0.8021	0.875
Siz_1090	Si	0.5521	0.8021	0.625
Siz_1091	Si	0.9479	0.6979	0.625
Siz_1092	Si	0.5521	0.6979	0.875
Siz_1093	Si	0.9479	0.875	0.6979
Siz_1094	Si	0.5521	0.625	0.6979
Siz_1095	Si	0.9479	0.625	0.8021
Siz_1096	Si	0.5521	0.875	0.8021
Siz_1097	Si	0.875	0.8021	0.5521
Siz_1098	Si	0.625	0.8021	0.9479
Siz_1099	Si	0.625	0.6979	0.5521
Siz_1100	Si	0.875	0.6979	0.9479
Siz_1101	Si	0.8021	0.9479	0.625
Siz_1102	Si	0.8021	0.5521	0.875
Siz_1103	Si	0.6979	0.9479	0.875
Siz_1104	Si	0.6979	0.5521	0.625
Oz_1105	O	0.85535	0.75	0.9417
Oz_1106	O	0.8326	0.8326	0.9327
Oa_1107	O	0.64465	0.75	0.9417
Oa_1108	O	0.6674	0.6674	0.9327
Oz_1109	O	0.64465	0.75	0.5583
Oz_1110	O	0.6674	0.8326	0.5673
Oa_1111	O	0.85535	0.75	0.5583
Oa_1112	O	0.8326	0.6674	0.5673
Oz_1113	O	0.9417	0.85535	0.75
Oz_1114	O	0.9327	0.8326	0.8326
Oa_1115	O	0.9417	0.64465	0.75
Oa_1116	O	0.9327	0.6674	0.6674
Oa_1117	O	0.5583	0.64465	0.75
Oa_1118	O	0.5673	0.6674	0.8326
Oa_1119	O	0.5583	0.85535	0.75
Oa_1120	O	0.5673	0.8326	0.6674
Oa_1121	O	0.75	0.9417	0.85535
Oa_1122	O	0.8326	0.9327	0.8326
Oa_1123	O	0.75	0.9417	0.64465
Oa_1124	O	0.6674	0.9327	0.6674
Oa_1125	O	0.75	0.5583	0.64465
Oa_1126	O	0.8326	0.5673	0.6674
Oa_1127	O	0.75	0.5583	0.85535
Oa_1128	O	0.6674	0.5673	0.8326
Oa_1129	O	0.75	0.85535	0.5583
Oa_1130	O	0.8326	0.8326	0.5673
Oz_1131	O	0.75	0.64465	0.5583
Oz_1132	O	0.6674	0.6674	0.5673
Oa_1133	O	0.75	0.64465	0.9417
Oa_1134	O	0.8326	0.6674	0.9327
Oz_1135	O	0.75	0.85535	0.9417
Oz_1136	O	0.6674	0.8326	0.9327
Oz_1137	O	0.85535	0.9417	0.75
Oz_1138	O	0.8326	0.9327	0.6674
Oa_1139	O	0.64465	0.9417	0.75
Oa_1140	O	0.6674	0.9327	0.8326
Oa_1141	O	0.64465	0.5583	0.75
Oa_1142	O	0.6674	0.5673	0.6674
Oa_1143	O	0.85535	0.5583	0.75
Oa_1144	O	0.8326	0.5673	0.8326
Oa_1145	O	0.9417	0.75	0.64465
Oa_1146	O	0.9327	0.8326	0.6674
Oz_1147	O	0.9417	0.75	0.85535
Oz_1148	O	0.9327	0.6674	0.8326
Oz_1149	O	0.5583	0.75	0.85535
Oz_1150	O	0.5673	0.8326	0.8326
Oa_1151	O	0.5583	0.75	0.64465
Oa_1152	O	0.5673	0.6674	0.6674
Na_1153	Na	0.128767	0.125873	0.868572
Na_1154	Na	0.53892	0.520657	0.678531
Na_1155	Na	0.124609	0.381545	0.1291
Na_1156	Na	0.518495	0.524383	0.32097
Na_1157	Na	0.622547	0.882044	0.124942
Na_1158	Na	0.374094	0.376023	0.619453
Na_1159	Na	0.179795	0.0205908	0.466503
Na_1160	Na	0.978145	0.184086	0.0294392
Na_1161	Na	0.179163	0.520491	0.961114
Na_1162	Na	0.433737	0.221409	0.719646
Na_1163	Na	0.974686	0.688976	0.52914
Na_1164	Na	0.832945	0.968465	0.476715
Na_1165	Na	0.631462	0.126173	0.372829
Na_1166	Na	0.973987	0.173308	0.538221
Na_1167	Na	0.184485	0.0235846	0.963442
Na_1168	Na	0.573182	0.775364	0.717617
Na_1169	Na	0.726831	0.421795	0.782716
Na_1170	Na	0.731422	0.215688	0.929546
Na_1171	Na	0.128534	0.133324	0.633324
Na_1172	Na	0.218149	0.92399	0.781452
Na_1173	Na	0.230956	0.714756	0.436864
Na_1174	Na	0.62604	0.379516	0.132227
Na_1175	Na	0.0805668	0.775098	0.718415
Na_1176	Na	0.473921	0.687779	0.0320338
Na_1177	Na	0.623478	0.879815	0.627137
Na_1178	Na	0.235214	0.720777	0.938893
Na_1179	Na	0.223438	0.929213	0.285809
Na_1180	Na	0.865877	0.36458	0.625807
Na_1181	Na	0.0615727	0.274765	0.717983
Na_1182	Na	0.873428	0.373262	0.119919
Na_1183	Na	0.374825	0.624509	0.616193
Na_1184	Na	0.371532	0.125308	0.126572
Na_1185	Na	0.374193	0.109507	0.883042
Na_1186	Na	0.573481	0.771506	0.215056
Na_1187	Na	0.121116	0.381279	0.627004
Na_1188	Na	0.9676	0.688178	0.0322001
Na_1189	Na	0.726665	0.71612	0.934103
Na_1190	Na	0.773901	0.0602754	0.218016
Na_1191	Na	0.527077	0.0271106	0.685018
Na_1192	Na	0.782017	0.070022	0.720644
Na_1193	Na	0.63073	0.62747	0.36611
Na_1194	Na	0.677866	0.0119087	0.969596
Na_1195	Na	0.377886	0.874127	0.616193
Na_1196	Na	0.280221	0.0630697	0.725135
Na_1197	Na	0.724037	0.934801	0.778591
Na_1198	Na	0.718515	0.936664	0.275131
Na_1199	Na	0.278025	0.561839	0.719313
Na_1200	Na	0.0356264	0.481072	0.822933
Na_1201	Na	0.732287	0.215455	0.432739
Na_1202	Na	0.681225	0.015967	0.466503
Na_1203	Na	0.321935	0.971459	0.468798
Na_1204	Na	0.629399	0.631761	0.132293
Na_1205	Na	0.534628	0.0171645	0.815681
Na_1206	Na	0.631861	0.633092	0.863981
Na_1207	Na	0.0336305	0.528508	0.679063
Na_1208	Na	0.719513	0.432573	0.281651
Na_1209	Na	0.369802	0.870501	0.119753
Na_1210	Na	0.918735	0.215222	0.716253
Na_1211	Na	0.928282	0.723671	0.215654
Na_1212	Na	0.333611	0.468332	0.460914
Na_1213	Na	0.131229	0.633258	0.639578
Na_1214	Na	0.27084	0.561107	0.219446
Na_1215	Na	0.469596	0.179596	0.0342958
Na_1216	Na	0.0811656	0.770108	0.213126
Na_1217	Na	0.725135	0.727164	0.431708
Na_1218	Na	0.377553	0.615129	0.375225
Na_1219	Na	0.563768	0.277892	0.21938
Na_1220	Na	0.832679	0.961746	0.974652
Na_1221	Na	0.921462	0.221708	0.217218
Na_1222	Na	0.535892	0.522753	0.1773
Na_1223	Na	0.217717	0.223471	0.928814
Na_1224	Na	0.329818	0.467534	0.973355
Na_1225	Na	0.374459	0.122281	0.616226
Na_1226	Na	0.871033	0.618322	0.118788
Na_1227	Na	0.868272	0.619619	0.875857
Na_1228	Na	0.0351939	0.0184951	0.828022
Na_1229	Na	0.216419	0.427849	0.77257
Na_1230	Na	0.534362	0.0253809	0.184386
Na_1231	Na	0.8709	0.117158	0.87752
Na_1232	Na	0.366576	0.12085	0.372563
Na_1233	Na	0.622913	0.121981	0.630464
Na_1234	Na	0.418003	0.72081	0.716286
Na_1235	Na	0.0248486	0.0322334	0.684386
Na_1236	Na	0.127636	0.62075	0.128734
Na_1237	Na	0.625308	0.128069	0.129466
Na_1238	Na	0.880081	0.121582	0.115927
Na_1239	Na	0.771339	0.559144	0.716819
Na_1240	Na	0.871832	0.113299	0.376588
Na_1241	Na	0.0326991	0.523052	0.322168
Na_1242	Na	0.0317677	0.0219546	0.185783
Na_1243	Na	0.0357594	0.0220877	0.3227
Na_1244	Na	0.177832	0.518761	0.465604
Na_1245	Na	0.773302	0.563402	0.217584
Na_1246	Na	0.033065	0.523585	0.182822
Na_1247	Na	0.0658971	0.274533	0.223305
Na_1248	Na	0.570122	0.276961	0.719679
Na_1249	Na	0.871166	0.866143	0.126971
Na_1250	Na	0.121316	0.881279	0.634289
Na_1251	Na	0.124875	0.890759	0.121349
Na_1252	Na	0.228894	0.214856	0.43214
Na_1253	Na	0.928514	0.723837	0.716486
Na_1254	Na	0.427683	0.228694	0.214723
Na_1255	Na	0.131196	0.124343	0.368671
Na_1256	Na	0.867474	0.61616	0.374127
Na_1257	Na	0.421163	0.724636	0.21632
Na_1258	Na	0.622181	0.386634	0.62238
Na_1259	Na	0.629067	0.635387	0.634389
Na_1260	Na	0.674107	0.522487	0.464806
Na_1261	Na	0.8708	0.129798	0.623145
Na_1262	Na	0.881911	0.618123	0.62085
Na_1263	Na	0.631196	0.136751	0.86947
Na_1264	Na	0.279622	0.0560841	0.224203
Na_1265	Na	0.125108	0.125906	0.137915
Na_1266	Na	0.131229	0.629699	0.363149
Na_1267	Na	0.129998	0.623578	0.868172
Na_1268	Na	0.872763	0.86468	0.628967
Na_1269	Na	0.820338	0.474885	0.469862
Na_1270	Na	0.834808	0.464806	0.971958
Na_1271	Na	0.469496	0.692569	0.534263
Na_1272	Na	0.372297	0.62737	0.119786
Na_1273	Na	0.474253	0.192336	0.532466
Na_1274	Na	0.529905	0.0230524	0.326958
Na_1275	Na	0.37436	0.368339	0.121682
Na_1276	Na	0.323265	0.959317	0.979908
Na_1277	Na	0.222141	0.4354	0.283048
Na_1278	Na	0.681292	0.519094	0.966503
Na_1279	Na	0.524849	0.530171	0.822301
Na_1280	Na	0.369436	0.62248	0.875457


#END
