data_SuperCIT7m1

_chemical_name_common                  'CIT-7'
_cell_length_a                         26.037399
_cell_length_b                         33.618900
_cell_length_c                         28.127399
_cell_angle_alpha                      92.820000
_cell_angle_beta                       107.199997
_cell_angle_gamma                      103.260002
_cell_volume                           22711.070477
_symmetry_space_group_name_Hall        'P 1'
_symmetry_space_group_name_H-M         'P 1'
_space_group_IT_number                 1

loop_
_space_group_symop_operation_xyz
'x, y, z'

loop_
_atom_site_label
_atom_site_occupancy
_atom_site_fract_x
_atom_site_fract_y
_atom_site_fract_z
Oz_1       1.0     0.111800     0.168633     0.016567
Oz_1       1.0     0.111800     0.168633     0.349900
Oz_1       1.0     0.111800     0.168633     0.683233
Oz_1       1.0     0.111800     0.501967     0.016567
Oz_1       1.0     0.111800     0.501967     0.349900
Oz_1       1.0     0.111800     0.501967     0.683233
Oz_1       1.0     0.111800     0.835300     0.016567
Oz_1       1.0     0.111800     0.835300     0.349900
Oz_1       1.0     0.111800     0.835300     0.683233
Oz_1       1.0     0.611800     0.168633     0.016567
Oz_1       1.0     0.611800     0.168633     0.349900
Oz_1       1.0     0.611800     0.168633     0.683233
Oz_1       1.0     0.611800     0.501967     0.016567
Oz_1       1.0     0.611800     0.501967     0.349900
Oa_1       1.0     0.611800     0.501967     0.683233
Oz_1       1.0     0.611800     0.835300     0.016567
Oz_1       1.0     0.611800     0.835300     0.349900
Oz_1       1.0     0.611800     0.835300     0.683233
Oz_2       1.0     0.178200     0.140033     0.090467
Oz_2       1.0     0.178200     0.140033     0.423800
Oz_2       1.0     0.178200     0.140033     0.757133
Oz_2       1.0     0.178200     0.473367     0.090467
Oz_2       1.0     0.178200     0.473367     0.423800
Oz_2       1.0     0.178200     0.473367     0.757133
Oz_2       1.0     0.178200     0.806700     0.090467
Oz_2       1.0     0.178200     0.806700     0.423800
Oz_2       1.0     0.178200     0.806700     0.757133
Oz_2       1.0     0.678200     0.140033     0.090467
Oz_2       1.0     0.678200     0.140033     0.423800
Oz_2       1.0     0.678200     0.140033     0.757133
Oz_2       1.0     0.678200     0.473367     0.090467
Oz_2       1.0     0.678200     0.473367     0.423800
Oz_2       1.0     0.678200     0.473367     0.757133
Oz_2       1.0     0.678200     0.806700     0.090467
Oz_2       1.0     0.678200     0.806700     0.423800
Oz_2       1.0     0.678200     0.806700     0.757133
Oz_3       1.0     0.162000     0.213700     0.104867
Oz_3       1.0     0.162000     0.213700     0.438200
Oz_3       1.0     0.162000     0.213700     0.771533
Oz_3       1.0     0.162000     0.547033     0.104867
Oz_3       1.0     0.162000     0.547033     0.438200
Oz_3       1.0     0.162000     0.547033     0.771533
Oz_3       1.0     0.162000     0.880367     0.104867
Oz_3       1.0     0.162000     0.880367     0.438200
Oz_3       1.0     0.162000     0.880367     0.771533
Oz_3       1.0     0.662000     0.213700     0.104867
Oz_3       1.0     0.662000     0.213700     0.438200
Oz_3       1.0     0.662000     0.213700     0.771533
Oz_3       1.0     0.662000     0.547033     0.104867
Oz_3       1.0     0.662000     0.547033     0.438200
Oz_3       1.0     0.662000     0.547033     0.771533
Oz_3       1.0     0.662000     0.880367     0.104867
Oz_3       1.0     0.662000     0.880367     0.438200
Oz_3       1.0     0.662000     0.880367     0.771533
Oz_4       1.0     0.083100     0.148767     0.095333
Oz_4       1.0     0.083100     0.148767     0.428667
Oz_4       1.0     0.083100     0.148767     0.762000
Oz_4       1.0     0.083100     0.482100     0.095333
Oz_4       1.0     0.083100     0.482100     0.428667
Oz_4       1.0     0.083100     0.482100     0.762000
Oz_4       1.0     0.083100     0.815433     0.095333
Oz_4       1.0     0.083100     0.815433     0.428667
Oz_4       1.0     0.083100     0.815433     0.762000
Oz_4       1.0     0.583100     0.148767     0.095333
Oz_4       1.0     0.583100     0.148767     0.428667
Oz_4       1.0     0.583100     0.148767     0.762000
Oz_4       1.0     0.583100     0.482100     0.095333
Oz_4       1.0     0.583100     0.482100     0.428667
Oz_4       1.0     0.583100     0.482100     0.762000
Oz_4       1.0     0.583100     0.815433     0.095333
Oz_4       1.0     0.583100     0.815433     0.428667
Oz_4       1.0     0.583100     0.815433     0.762000
Oz_5       1.0     0.185150     0.221533     0.323833
Oz_5       1.0     0.185150     0.221533     0.657167
Oz_5       1.0     0.185150     0.221533     0.990500
Oz_5       1.0     0.185150     0.554867     0.323833
Oz_5       1.0     0.185150     0.554867     0.657167
Oz_5       1.0     0.185150     0.554867     0.990500
Oz_5       1.0     0.185150     0.888200     0.323833
Oz_5       1.0     0.185150     0.888200     0.657167
Oz_5       1.0     0.185150     0.888200     0.990500
Oz_5       1.0     0.685150     0.221533     0.323833
Oz_5       1.0     0.685150     0.221533     0.657167
Oz_5       1.0     0.685150     0.221533     0.990500
Oz_5       1.0     0.685150     0.554867     0.323833
Oa_5       1.0     0.685150     0.554867     0.657167
Oz_5       1.0     0.685150     0.554867     0.990500
Oz_5       1.0     0.685150     0.888200     0.323833
Oz_5       1.0     0.685150     0.888200     0.657167
Oz_5       1.0     0.685150     0.888200     0.990500
Oz_6       1.0     0.084550     0.197900     0.263100
Oz_6       1.0     0.084550     0.197900     0.596433
Oz_6       1.0     0.084550     0.197900     0.929767
Oz_6       1.0     0.084550     0.531233     0.263100
Oz_6       1.0     0.084550     0.531233     0.596433
Oz_6       1.0     0.084550     0.531233     0.929767
Oz_6       1.0     0.084550     0.864567     0.263100
Oz_6       1.0     0.084550     0.864567     0.596433
Oz_6       1.0     0.084550     0.864567     0.929767
Oz_6       1.0     0.584550     0.197900     0.263100
Oz_6       1.0     0.584550     0.197900     0.596433
Oz_6       1.0     0.584550     0.197900     0.929767
Oz_6       1.0     0.584550     0.531233     0.263100
Oa_6       1.0     0.584550     0.531233     0.596433
Oz_6       1.0     0.584550     0.531233     0.929767
Oz_6       1.0     0.584550     0.864567     0.263100
Oz_6       1.0     0.584550     0.864567     0.596433
Oz_6       1.0     0.584550     0.864567     0.929767
Oz_7       1.0     0.149300     0.145900     0.279067
Oz_7       1.0     0.149300     0.145900     0.612400
Oz_7       1.0     0.149300     0.145900     0.945733
Oz_7       1.0     0.149300     0.479233     0.279067
Oz_7       1.0     0.149300     0.479233     0.612400
Oz_7       1.0     0.149300     0.479233     0.945733
Oz_7       1.0     0.149300     0.812567     0.279067
Oz_7       1.0     0.149300     0.812567     0.612400
Oz_7       1.0     0.149300     0.812567     0.945733
Oz_7       1.0     0.649300     0.145900     0.279067
Oz_7       1.0     0.649300     0.145900     0.612400
Oz_7       1.0     0.649300     0.145900     0.945733
Oz_7       1.0     0.649300     0.479233     0.279067
Oa_7       1.0     0.649300     0.479233     0.612400
Oz_7       1.0     0.649300     0.479233     0.945733
Oz_7       1.0     0.649300     0.812567     0.279067
Oz_7       1.0     0.649300     0.812567     0.612400
Oz_7       1.0     0.649300     0.812567     0.945733
Oz_8       1.0     0.170550     0.083800     0.233433
Oz_8       1.0     0.170550     0.083800     0.566767
Oz_8       1.0     0.170550     0.083800     0.900100
Oz_8       1.0     0.170550     0.417133     0.233433
Oz_8       1.0     0.170550     0.417133     0.566767
Oz_8       1.0     0.170550     0.417133     0.900100
Oz_8       1.0     0.170550     0.750467     0.233433
Oz_8       1.0     0.170550     0.750467     0.566767
Oz_8       1.0     0.170550     0.750467     0.900100
Oz_8       1.0     0.670550     0.083800     0.233433
Oz_8       1.0     0.670550     0.083800     0.566767
Oz_8       1.0     0.670550     0.083800     0.900100
Oz_8       1.0     0.670550     0.417133     0.233433
Oz_8       1.0     0.670550     0.417133     0.566767
Oz_8       1.0     0.670550     0.417133     0.900100
Oz_8       1.0     0.670550     0.750467     0.233433
Oz_8       1.0     0.670550     0.750467     0.566767
Oz_8       1.0     0.670550     0.750467     0.900100
Oz_9       1.0     0.213750     0.160533     0.221667
Oz_9       1.0     0.213750     0.160533     0.555000
Oz_9       1.0     0.213750     0.160533     0.888333
Oz_9       1.0     0.213750     0.493867     0.221667
Oz_9       1.0     0.213750     0.493867     0.555000
Oz_9       1.0     0.213750     0.493867     0.888333
Oz_9       1.0     0.213750     0.827200     0.221667
Oz_9       1.0     0.213750     0.827200     0.555000
Oz_9       1.0     0.213750     0.827200     0.888333
Oz_9       1.0     0.713750     0.160533     0.221667
Oz_9       1.0     0.713750     0.160533     0.555000
Oz_9       1.0     0.713750     0.160533     0.888333
Oz_9       1.0     0.713750     0.493867     0.221667
Oz_9       1.0     0.713750     0.493867     0.555000
Oz_9       1.0     0.713750     0.493867     0.888333
Oz_9       1.0     0.713750     0.827200     0.221667
Oz_9       1.0     0.713750     0.827200     0.555000
Oz_9       1.0     0.713750     0.827200     0.888333
Oz_10      1.0     0.105600     0.124600     0.182900
Oz_10      1.0     0.105600     0.124600     0.516233
Oz_10      1.0     0.105600     0.124600     0.849567
Oz_10      1.0     0.105600     0.457933     0.182900
Oz_10      1.0     0.105600     0.457933     0.516233
Oz_10      1.0     0.105600     0.457933     0.849567
Oz_10      1.0     0.105600     0.791267     0.182900
Oz_10      1.0     0.105600     0.791267     0.516233
Oz_10      1.0     0.105600     0.791267     0.849567
Oz_10      1.0     0.605600     0.124600     0.182900
Oz_10      1.0     0.605600     0.124600     0.516233
Oz_10      1.0     0.605600     0.124600     0.849567
Oz_10      1.0     0.605600     0.457933     0.182900
Oz_10      1.0     0.605600     0.457933     0.516233
Oz_10      1.0     0.605600     0.457933     0.849567
Oz_10      1.0     0.605600     0.791267     0.182900
Oz_10      1.0     0.605600     0.791267     0.516233
Oz_10      1.0     0.605600     0.791267     0.849567
Oz_11      1.0     0.065600     0.188967     0.166367
Oz_11      1.0     0.065600     0.188967     0.499700
Oz_11      1.0     0.065600     0.188967     0.833033
Oz_11      1.0     0.065600     0.522300     0.166367
Oz_11      1.0     0.065600     0.522300     0.499700
Oz_11      1.0     0.065600     0.522300     0.833033
Oz_11      1.0     0.065600     0.855633     0.166367
Oz_11      1.0     0.065600     0.855633     0.499700
Oz_11      1.0     0.065600     0.855633     0.833033
Oz_11      1.0     0.565600     0.188967     0.166367
Oz_11      1.0     0.565600     0.188967     0.499700
Oz_11      1.0     0.565600     0.188967     0.833033
Oz_11      1.0     0.565600     0.522300     0.166367
Oz_11      1.0     0.565600     0.522300     0.499700
Oz_11      1.0     0.565600     0.522300     0.833033
Oz_11      1.0     0.565600     0.855633     0.166367
Oz_11      1.0     0.565600     0.855633     0.499700
Oz_11      1.0     0.565600     0.855633     0.833033
Oz_12      1.0     0.000600     0.115400     0.129900
Oz_12      1.0     0.000600     0.115400     0.463233
Oz_12      1.0     0.000600     0.115400     0.796567
Oz_12      1.0     0.000600     0.448733     0.129900
Oz_12      1.0     0.000600     0.448733     0.463233
Oz_12      1.0     0.000600     0.448733     0.796567
Oz_12      1.0     0.000600     0.782067     0.129900
Oz_12      1.0     0.000600     0.782067     0.463233
Oz_12      1.0     0.000600     0.782067     0.796567
Oz_12      1.0     0.500600     0.115400     0.129900
Oz_12      1.0     0.500600     0.115400     0.463233
Oz_12      1.0     0.500600     0.115400     0.796567
Oz_12      1.0     0.500600     0.448733     0.129900
Oz_12      1.0     0.500600     0.448733     0.463233
Oz_12      1.0     0.500600     0.448733     0.796567
Oz_12      1.0     0.500600     0.782067     0.129900
Oz_12      1.0     0.500600     0.782067     0.463233
Oz_12      1.0     0.500600     0.782067     0.796567
Oz_13      1.0     0.165700     0.004633     0.223733
Oz_13      1.0     0.165700     0.004633     0.557067
Oz_13      1.0     0.165700     0.004633     0.890400
Oz_13      1.0     0.165700     0.337967     0.223733
Oz_13      1.0     0.165700     0.337967     0.557067
Oz_13      1.0     0.165700     0.337967     0.890400
Oz_13      1.0     0.165700     0.671300     0.223733
Oz_13      1.0     0.165700     0.671300     0.557067
Oz_13      1.0     0.165700     0.671300     0.890400
Oz_13      1.0     0.665700     0.004633     0.223733
Oz_13      1.0     0.665700     0.004633     0.557067
Oz_13      1.0     0.665700     0.004633     0.890400
Oz_13      1.0     0.665700     0.337967     0.223733
Oz_13      1.0     0.665700     0.337967     0.557067
Oz_13      1.0     0.665700     0.337967     0.890400
Oz_13      1.0     0.665700     0.671300     0.223733
Oz_13      1.0     0.665700     0.671300     0.557067
Oz_13      1.0     0.665700     0.671300     0.890400
Oz_14      1.0     0.254650     0.057500     0.220367
Oz_14      1.0     0.254650     0.057500     0.553700
Oz_14      1.0     0.254650     0.057500     0.887033
Oz_14      1.0     0.254650     0.390833     0.220367
Oz_14      1.0     0.254650     0.390833     0.553700
Oz_14      1.0     0.254650     0.390833     0.887033
Oz_14      1.0     0.254650     0.724167     0.220367
Oz_14      1.0     0.254650     0.724167     0.553700
Oz_14      1.0     0.254650     0.724167     0.887033
Oz_14      1.0     0.754650     0.057500     0.220367
Oz_14      1.0     0.754650     0.057500     0.553700
Oz_14      1.0     0.754650     0.057500     0.887033
Oz_14      1.0     0.754650     0.390833     0.220367
Oz_14      1.0     0.754650     0.390833     0.553700
Oz_14      1.0     0.754650     0.390833     0.887033
Oz_14      1.0     0.754650     0.724167     0.220367
Oz_14      1.0     0.754650     0.724167     0.553700
Oz_14      1.0     0.754650     0.724167     0.887033
Oz_15      1.0     0.228550     0.051200     0.305600
Oz_15      1.0     0.228550     0.051200     0.638933
Oz_15      1.0     0.228550     0.051200     0.972267
Oz_15      1.0     0.228550     0.384533     0.305600
Oz_15      1.0     0.228550     0.384533     0.638933
Oz_15      1.0     0.228550     0.384533     0.972267
Oz_15      1.0     0.228550     0.717867     0.305600
Oz_15      1.0     0.228550     0.717867     0.638933
Oz_15      1.0     0.228550     0.717867     0.972267
Oz_15      1.0     0.728550     0.051200     0.305600
Oz_15      1.0     0.728550     0.051200     0.638933
Oz_15      1.0     0.728550     0.051200     0.972267
Oz_15      1.0     0.728550     0.384533     0.305600
Oz_15      1.0     0.728550     0.384533     0.638933
Oz_15      1.0     0.728550     0.384533     0.972267
Oz_15      1.0     0.728550     0.717867     0.305600
Oz_15      1.0     0.728550     0.717867     0.638933
Oz_15      1.0     0.728550     0.717867     0.972267
Oz_16      1.0     0.204650     0.282367     0.270967
Oz_16      1.0     0.204650     0.282367     0.604300
Oz_16      1.0     0.204650     0.282367     0.937633
Oz_16      1.0     0.204650     0.615700     0.270967
Oz_16      1.0     0.204650     0.615700     0.604300
Oz_16      1.0     0.204650     0.615700     0.937633
Oz_16      1.0     0.204650     0.949033     0.270967
Oz_16      1.0     0.204650     0.949033     0.604300
Oz_16      1.0     0.204650     0.949033     0.937633
Oz_16      1.0     0.704650     0.282367     0.270967
Oz_16      1.0     0.704650     0.282367     0.604300
Oz_16      1.0     0.704650     0.282367     0.937633
Oz_16      1.0     0.704650     0.615700     0.270967
Oz_16      1.0     0.704650     0.615700     0.604300
Oz_16      1.0     0.704650     0.615700     0.937633
Oz_16      1.0     0.704650     0.949033     0.270967
Oz_16      1.0     0.704650     0.949033     0.604300
Oz_16      1.0     0.704650     0.949033     0.937633
Oz_17      1.0     0.100700     0.263433     0.214167
Oz_17      1.0     0.100700     0.263433     0.547500
Oz_17      1.0     0.100700     0.263433     0.880833
Oz_17      1.0     0.100700     0.596767     0.214167
Oz_17      1.0     0.100700     0.596767     0.547500
Oz_17      1.0     0.100700     0.596767     0.880833
Oz_17      1.0     0.100700     0.930100     0.214167
Oz_17      1.0     0.100700     0.930100     0.547500
Oz_17      1.0     0.100700     0.930100     0.880833
Oz_17      1.0     0.600700     0.263433     0.214167
Oz_17      1.0     0.600700     0.263433     0.547500
Oz_17      1.0     0.600700     0.263433     0.880833
Oz_17      1.0     0.600700     0.596767     0.214167
Oz_17      1.0     0.600700     0.596767     0.547500
Oz_17      1.0     0.600700     0.596767     0.880833
Oz_17      1.0     0.600700     0.930100     0.214167
Oz_17      1.0     0.600700     0.930100     0.547500
Oz_17      1.0     0.600700     0.930100     0.880833
Oz_18      1.0     0.181800     0.277133     0.172067
Oz_18      1.0     0.181800     0.277133     0.505400
Oz_18      1.0     0.181800     0.277133     0.838733
Oz_18      1.0     0.181800     0.610467     0.172067
Oz_18      1.0     0.181800     0.610467     0.505400
Oz_18      1.0     0.181800     0.610467     0.838733
Oz_18      1.0     0.181800     0.943800     0.172067
Oz_18      1.0     0.181800     0.943800     0.505400
Oz_18      1.0     0.181800     0.943800     0.838733
Oz_18      1.0     0.681800     0.277133     0.172067
Oz_18      1.0     0.681800     0.277133     0.505400
Oz_18      1.0     0.681800     0.277133     0.838733
Oz_18      1.0     0.681800     0.610467     0.172067
Oz_18      1.0     0.681800     0.610467     0.505400
Oz_18      1.0     0.681800     0.610467     0.838733
Oz_18      1.0     0.681800     0.943800     0.172067
Oz_18      1.0     0.681800     0.943800     0.505400
Oz_18      1.0     0.681800     0.943800     0.838733
Oz_19      1.0     0.234650     0.103533     0.049133
Oz_19      1.0     0.234650     0.103533     0.382467
Oz_19      1.0     0.234650     0.103533     0.715800
Oz_19      1.0     0.234650     0.436867     0.049133
Oz_19      1.0     0.234650     0.436867     0.382467
Oz_19      1.0     0.234650     0.436867     0.715800
Oz_19      1.0     0.234650     0.770200     0.049133
Oz_19      1.0     0.234650     0.770200     0.382467
Oz_19      1.0     0.234650     0.770200     0.715800
Oz_19      1.0     0.734650     0.103533     0.049133
Oz_19      1.0     0.734650     0.103533     0.382467
Oz_19      1.0     0.734650     0.103533     0.715800
Oz_19      1.0     0.734650     0.436867     0.049133
Oz_19      1.0     0.734650     0.436867     0.382467
Oz_19      1.0     0.734650     0.436867     0.715800
Oz_19      1.0     0.734650     0.770200     0.049133
Oz_19      1.0     0.734650     0.770200     0.382467
Oz_19      1.0     0.734650     0.770200     0.715800
Oz_20      1.0     0.249600     0.104500     0.146933
Oz_20      1.0     0.249600     0.104500     0.480267
Oz_20      1.0     0.249600     0.104500     0.813600
Oz_20      1.0     0.249600     0.437833     0.146933
Oz_20      1.0     0.249600     0.437833     0.480267
Oz_20      1.0     0.249600     0.437833     0.813600
Oz_20      1.0     0.249600     0.771167     0.146933
Oz_20      1.0     0.249600     0.771167     0.480267
Oz_20      1.0     0.249600     0.771167     0.813600
Oz_20      1.0     0.749600     0.104500     0.146933
Oz_20      1.0     0.749600     0.104500     0.480267
Oz_20      1.0     0.749600     0.104500     0.813600
Oz_20      1.0     0.749600     0.437833     0.146933
Oz_20      1.0     0.749600     0.437833     0.480267
Oz_20      1.0     0.749600     0.437833     0.813600
Oz_20      1.0     0.749600     0.771167     0.146933
Oz_20      1.0     0.749600     0.771167     0.480267
Oz_20      1.0     0.749600     0.771167     0.813600
Siz_21     1.0     0.134000     0.167767     0.076200
Siz_21     1.0     0.134000     0.167767     0.409533
Siz_21     1.0     0.134000     0.167767     0.742867
Siz_21     1.0     0.134000     0.501100     0.076200
Siz_21     1.0     0.134000     0.501100     0.409533
Siz_21     1.0     0.134000     0.501100     0.742867
Siz_21     1.0     0.134000     0.834433     0.076200
Siz_21     1.0     0.134000     0.834433     0.409533
Siz_21     1.0     0.134000     0.834433     0.742867
Siz_21     1.0     0.634000     0.167767     0.076200
Siz_21     1.0     0.634000     0.167767     0.409533
Siz_21     1.0     0.634000     0.167767     0.742867
Siz_21     1.0     0.634000     0.501100     0.076200
Siz_21     1.0     0.634000     0.501100     0.409533
Siz_21     1.0     0.634000     0.501100     0.742867
Siz_21     1.0     0.634000     0.834433     0.076200
Siz_21     1.0     0.634000     0.834433     0.409533
Siz_21     1.0     0.634000     0.834433     0.742867
Siz_22     1.0     0.132300     0.183200     0.303600
Siz_22     1.0     0.132300     0.183200     0.636933
Siz_22     1.0     0.132300     0.183200     0.970267
Siz_22     1.0     0.132300     0.516533     0.303600
Siz_22     1.0     0.132300     0.516533     0.636933
Siz_22     1.0     0.132300     0.516533     0.970267
Siz_22     1.0     0.132300     0.849867     0.303600
Siz_22     1.0     0.132300     0.849867     0.636933
Siz_22     1.0     0.132300     0.849867     0.970267
Siz_22     1.0     0.632300     0.183200     0.303600
Siz_22     1.0     0.632300     0.183200     0.636933
Siz_22     1.0     0.632300     0.183200     0.970267
Siz_22     1.0     0.632300     0.516533     0.303600
Alz_22     1.0     0.632300     0.516533     0.636933
Siz_22     1.0     0.632300     0.516533     0.970267
Siz_22     1.0     0.632300     0.849867     0.303600
Siz_22     1.0     0.632300     0.849867     0.636933
Siz_22     1.0     0.632300     0.849867     0.970267
Siz_23     1.0     0.160500     0.129133     0.229533
Siz_23     1.0     0.160500     0.129133     0.562867
Siz_23     1.0     0.160500     0.129133     0.896200
Siz_23     1.0     0.160500     0.462467     0.229533
Siz_23     1.0     0.160500     0.462467     0.562867
Siz_23     1.0     0.160500     0.462467     0.896200
Siz_23     1.0     0.160500     0.795800     0.229533
Siz_23     1.0     0.160500     0.795800     0.562867
Siz_23     1.0     0.160500     0.795800     0.896200
Siz_23     1.0     0.660500     0.129133     0.229533
Siz_23     1.0     0.660500     0.129133     0.562867
Siz_23     1.0     0.660500     0.129133     0.896200
Siz_23     1.0     0.660500     0.462467     0.229533
Siz_23     1.0     0.660500     0.462467     0.562867
Siz_23     1.0     0.660500     0.462467     0.896200
Siz_23     1.0     0.660500     0.795800     0.229533
Siz_23     1.0     0.660500     0.795800     0.562867
Siz_23     1.0     0.660500     0.795800     0.896200
Siz_24     1.0     0.063050     0.143767     0.143500
Siz_24     1.0     0.063050     0.143767     0.476833
Siz_24     1.0     0.063050     0.143767     0.810167
Siz_24     1.0     0.063050     0.477100     0.143500
Siz_24     1.0     0.063050     0.477100     0.476833
Siz_24     1.0     0.063050     0.477100     0.810167
Siz_24     1.0     0.063050     0.810433     0.143500
Siz_24     1.0     0.063050     0.810433     0.476833
Siz_24     1.0     0.063050     0.810433     0.810167
Siz_24     1.0     0.563050     0.143767     0.143500
Siz_24     1.0     0.563050     0.143767     0.476833
Siz_24     1.0     0.563050     0.143767     0.810167
Siz_24     1.0     0.563050     0.477100     0.143500
Siz_24     1.0     0.563050     0.477100     0.476833
Siz_24     1.0     0.563050     0.477100     0.810167
Siz_24     1.0     0.563050     0.810433     0.143500
Siz_24     1.0     0.563050     0.810433     0.476833
Siz_24     1.0     0.563050     0.810433     0.810167
Siz_25     1.0     0.205250     0.049767     0.245567
Siz_25     1.0     0.205250     0.049767     0.578900
Siz_25     1.0     0.205250     0.049767     0.912233
Siz_25     1.0     0.205250     0.383100     0.245567
Siz_25     1.0     0.205250     0.383100     0.578900
Siz_25     1.0     0.205250     0.383100     0.912233
Siz_25     1.0     0.205250     0.716433     0.245567
Siz_25     1.0     0.205250     0.716433     0.578900
Siz_25     1.0     0.205250     0.716433     0.912233
Siz_25     1.0     0.705250     0.049767     0.245567
Siz_25     1.0     0.705250     0.049767     0.578900
Siz_25     1.0     0.705250     0.049767     0.912233
Siz_25     1.0     0.705250     0.383100     0.245567
Siz_25     1.0     0.705250     0.383100     0.578900
Siz_25     1.0     0.705250     0.383100     0.912233
Siz_25     1.0     0.705250     0.716433     0.245567
Siz_25     1.0     0.705250     0.716433     0.578900
Siz_25     1.0     0.705250     0.716433     0.912233
Siz_26     1.0     0.162750     0.289733     0.219533
Siz_26     1.0     0.162750     0.289733     0.552867
Siz_26     1.0     0.162750     0.289733     0.886200
Siz_26     1.0     0.162750     0.623067     0.219533
Siz_26     1.0     0.162750     0.623067     0.552867
Siz_26     1.0     0.162750     0.623067     0.886200
Siz_26     1.0     0.162750     0.956400     0.219533
Siz_26     1.0     0.162750     0.956400     0.552867
Siz_26     1.0     0.162750     0.956400     0.886200
Siz_26     1.0     0.662750     0.289733     0.219533
Siz_26     1.0     0.662750     0.289733     0.552867
Siz_26     1.0     0.662750     0.289733     0.886200
Siz_26     1.0     0.662750     0.623067     0.219533
Siz_26     1.0     0.662750     0.623067     0.552867
Siz_26     1.0     0.662750     0.623067     0.886200
Siz_26     1.0     0.662750     0.956400     0.219533
Siz_26     1.0     0.662750     0.956400     0.552867
Siz_26     1.0     0.662750     0.956400     0.886200
Siz_27     1.0     0.063050     0.217633     0.212200
Siz_27     1.0     0.063050     0.217633     0.545533
Siz_27     1.0     0.063050     0.217633     0.878867
Siz_27     1.0     0.063050     0.550967     0.212200
Siz_27     1.0     0.063050     0.550967     0.545533
Siz_27     1.0     0.063050     0.550967     0.878867
Siz_27     1.0     0.063050     0.884300     0.212200
Siz_27     1.0     0.063050     0.884300     0.545533
Siz_27     1.0     0.063050     0.884300     0.878867
Siz_27     1.0     0.563050     0.217633     0.212200
Siz_27     1.0     0.563050     0.217633     0.545533
Siz_27     1.0     0.563050     0.217633     0.878867
Siz_27     1.0     0.563050     0.550967     0.212200
Siz_27     1.0     0.563050     0.550967     0.545533
Siz_27     1.0     0.563050     0.550967     0.878867
Siz_27     1.0     0.563050     0.884300     0.212200
Siz_27     1.0     0.563050     0.884300     0.545533
Siz_27     1.0     0.563050     0.884300     0.878867
Siz_28     1.0     0.237700     0.130367     0.099567
Siz_28     1.0     0.237700     0.130367     0.432900
Siz_28     1.0     0.237700     0.130367     0.766233
Siz_28     1.0     0.237700     0.463700     0.099567
Siz_28     1.0     0.237700     0.463700     0.432900
Siz_28     1.0     0.237700     0.463700     0.766233
Siz_28     1.0     0.237700     0.797033     0.099567
Siz_28     1.0     0.237700     0.797033     0.432900
Siz_28     1.0     0.237700     0.797033     0.766233
Siz_28     1.0     0.737700     0.130367     0.099567
Siz_28     1.0     0.737700     0.130367     0.432900
Siz_28     1.0     0.737700     0.130367     0.766233
Siz_28     1.0     0.737700     0.463700     0.099567
Siz_28     1.0     0.737700     0.463700     0.432900
Siz_28     1.0     0.737700     0.463700     0.766233
Siz_28     1.0     0.737700     0.797033     0.099567
Siz_28     1.0     0.737700     0.797033     0.432900
Siz_28     1.0     0.737700     0.797033     0.766233
Siz_29     1.0     0.231900     0.254000     0.309867
Siz_29     1.0     0.231900     0.254000     0.643200
Siz_29     1.0     0.231900     0.254000     0.976533
Siz_29     1.0     0.231900     0.587333     0.309867
Siz_29     1.0     0.231900     0.587333     0.643200
Siz_29     1.0     0.231900     0.587333     0.976533
Siz_29     1.0     0.231900     0.920667     0.309867
Siz_29     1.0     0.231900     0.920667     0.643200
Siz_29     1.0     0.231900     0.920667     0.976533
Siz_29     1.0     0.731900     0.254000     0.309867
Siz_29     1.0     0.731900     0.254000     0.643200
Siz_29     1.0     0.731900     0.254000     0.976533
Siz_29     1.0     0.731900     0.587333     0.309867
Siz_29     1.0     0.731900     0.587333     0.643200
Siz_29     1.0     0.731900     0.587333     0.976533
Siz_29     1.0     0.731900     0.920667     0.309867
Siz_29     1.0     0.731900     0.920667     0.643200
Siz_29     1.0     0.731900     0.920667     0.976533
Siz_30     1.0     0.210150     0.248967     0.144500
Siz_30     1.0     0.210150     0.248967     0.477833
Siz_30     1.0     0.210150     0.248967     0.811167
Siz_30     1.0     0.210150     0.582300     0.144500
Siz_30     1.0     0.210150     0.582300     0.477833
Siz_30     1.0     0.210150     0.582300     0.811167
Siz_30     1.0     0.210150     0.915633     0.144500
Siz_30     1.0     0.210150     0.915633     0.477833
Siz_30     1.0     0.210150     0.915633     0.811167
Siz_30     1.0     0.710150     0.248967     0.144500
Siz_30     1.0     0.710150     0.248967     0.477833
Siz_30     1.0     0.710150     0.248967     0.811167
Siz_30     1.0     0.710150     0.582300     0.144500
Siz_30     1.0     0.710150     0.582300     0.477833
Siz_30     1.0     0.710150     0.582300     0.811167
Siz_30     1.0     0.710150     0.915633     0.144500
Siz_30     1.0     0.710150     0.915633     0.477833
Siz_30     1.0     0.710150     0.915633     0.811167
Oz_31      1.0     0.388200     0.164700     0.316767
Oz_31      1.0     0.388200     0.164700     0.650100
Oz_31      1.0     0.388200     0.164700     0.983433
Oz_31      1.0     0.388200     0.498033     0.316767
Oz_31      1.0     0.388200     0.498033     0.650100
Oz_31      1.0     0.388200     0.498033     0.983433
Oz_31      1.0     0.388200     0.831367     0.316767
Oz_31      1.0     0.388200     0.831367     0.650100
Oz_31      1.0     0.388200     0.831367     0.983433
Oz_31      1.0     0.888200     0.164700     0.316767
Oz_31      1.0     0.888200     0.164700     0.650100
Oz_31      1.0     0.888200     0.164700     0.983433
Oz_31      1.0     0.888200     0.498033     0.316767
Oz_31      1.0     0.888200     0.498033     0.650100
Oz_31      1.0     0.888200     0.498033     0.983433
Oz_31      1.0     0.888200     0.831367     0.316767
Oz_31      1.0     0.888200     0.831367     0.650100
Oz_31      1.0     0.888200     0.831367     0.983433
Oz_32      1.0     0.321800     0.193300     0.242867
Oz_32      1.0     0.321800     0.193300     0.576200
Oz_32      1.0     0.321800     0.193300     0.909533
Oz_32      1.0     0.321800     0.526633     0.242867
Oz_32      1.0     0.321800     0.526633     0.576200
Oz_32      1.0     0.321800     0.526633     0.909533
Oz_32      1.0     0.321800     0.859967     0.242867
Oz_32      1.0     0.321800     0.859967     0.576200
Oz_32      1.0     0.321800     0.859967     0.909533
Oz_32      1.0     0.821800     0.193300     0.242867
Oz_32      1.0     0.821800     0.193300     0.576200
Oz_32      1.0     0.821800     0.193300     0.909533
Oz_32      1.0     0.821800     0.526633     0.242867
Oz_32      1.0     0.821800     0.526633     0.576200
Oz_32      1.0     0.821800     0.526633     0.909533
Oz_32      1.0     0.821800     0.859967     0.242867
Oz_32      1.0     0.821800     0.859967     0.576200
Oz_32      1.0     0.821800     0.859967     0.909533
Oz_33      1.0     0.338000     0.119633     0.228467
Oz_33      1.0     0.338000     0.119633     0.561800
Oz_33      1.0     0.338000     0.119633     0.895133
Oz_33      1.0     0.338000     0.452967     0.228467
Oz_33      1.0     0.338000     0.452967     0.561800
Oz_33      1.0     0.338000     0.452967     0.895133
Oz_33      1.0     0.338000     0.786300     0.228467
Oz_33      1.0     0.338000     0.786300     0.561800
Oz_33      1.0     0.338000     0.786300     0.895133
Oz_33      1.0     0.838000     0.119633     0.228467
Oz_33      1.0     0.838000     0.119633     0.561800
Oz_33      1.0     0.838000     0.119633     0.895133
Oz_33      1.0     0.838000     0.452967     0.228467
Oz_33      1.0     0.838000     0.452967     0.561800
Oz_33      1.0     0.838000     0.452967     0.895133
Oz_33      1.0     0.838000     0.786300     0.228467
Oz_33      1.0     0.838000     0.786300     0.561800
Oz_33      1.0     0.838000     0.786300     0.895133
Oz_34      1.0     0.416900     0.184567     0.238000
Oz_34      1.0     0.416900     0.184567     0.571333
Oz_34      1.0     0.416900     0.184567     0.904667
Oz_34      1.0     0.416900     0.517900     0.238000
Oz_34      1.0     0.416900     0.517900     0.571333
Oz_34      1.0     0.416900     0.517900     0.904667
Oz_34      1.0     0.416900     0.851233     0.238000
Oz_34      1.0     0.416900     0.851233     0.571333
Oz_34      1.0     0.416900     0.851233     0.904667
Oz_34      1.0     0.916900     0.184567     0.238000
Oz_34      1.0     0.916900     0.184567     0.571333
Oz_34      1.0     0.916900     0.184567     0.904667
Oz_34      1.0     0.916900     0.517900     0.238000
Oz_34      1.0     0.916900     0.517900     0.571333
Oz_34      1.0     0.916900     0.517900     0.904667
Oz_34      1.0     0.916900     0.851233     0.238000
Oz_34      1.0     0.916900     0.851233     0.571333
Oz_34      1.0     0.916900     0.851233     0.904667
Oz_35      1.0     0.314850     0.111800     0.009500
Oz_35      1.0     0.314850     0.111800     0.342833
Oz_35      1.0     0.314850     0.111800     0.676167
Oz_35      1.0     0.314850     0.445133     0.009500
Oz_35      1.0     0.314850     0.445133     0.342833
Oz_35      1.0     0.314850     0.445133     0.676167
Oz_35      1.0     0.314850     0.778467     0.009500
Oz_35      1.0     0.314850     0.778467     0.342833
Oz_35      1.0     0.314850     0.778467     0.676167
Oz_35      1.0     0.814850     0.111800     0.009500
Oz_35      1.0     0.814850     0.111800     0.342833
Oz_35      1.0     0.814850     0.111800     0.676167
Oz_35      1.0     0.814850     0.445133     0.009500
Oz_35      1.0     0.814850     0.445133     0.342833
Oz_35      1.0     0.814850     0.445133     0.676167
Oz_35      1.0     0.814850     0.778467     0.009500
Oz_35      1.0     0.814850     0.778467     0.342833
Oz_35      1.0     0.814850     0.778467     0.676167
Oz_36      1.0     0.415450     0.135433     0.070233
Oz_36      1.0     0.415450     0.135433     0.403567
Oz_36      1.0     0.415450     0.135433     0.736900
Oz_36      1.0     0.415450     0.468767     0.070233
Oz_36      1.0     0.415450     0.468767     0.403567
Oz_36      1.0     0.415450     0.468767     0.736900
Oz_36      1.0     0.415450     0.802100     0.070233
Oz_36      1.0     0.415450     0.802100     0.403567
Oz_36      1.0     0.415450     0.802100     0.736900
Oz_36      1.0     0.915450     0.135433     0.070233
Oz_36      1.0     0.915450     0.135433     0.403567
Oz_36      1.0     0.915450     0.135433     0.736900
Oz_36      1.0     0.915450     0.468767     0.070233
Oz_36      1.0     0.915450     0.468767     0.403567
Oz_36      1.0     0.915450     0.468767     0.736900
Oz_36      1.0     0.915450     0.802100     0.070233
Oz_36      1.0     0.915450     0.802100     0.403567
Oz_36      1.0     0.915450     0.802100     0.736900
Oz_37      1.0     0.350700     0.187433     0.054267
Oz_37      1.0     0.350700     0.187433     0.387600
Oz_37      1.0     0.350700     0.187433     0.720933
Oz_37      1.0     0.350700     0.520767     0.054267
Oz_37      1.0     0.350700     0.520767     0.387600
Oz_37      1.0     0.350700     0.520767     0.720933
Oz_37      1.0     0.350700     0.854100     0.054267
Oz_37      1.0     0.350700     0.854100     0.387600
Oz_37      1.0     0.350700     0.854100     0.720933
Oz_37      1.0     0.850700     0.187433     0.054267
Oz_37      1.0     0.850700     0.187433     0.387600
Oz_37      1.0     0.850700     0.187433     0.720933
Oz_37      1.0     0.850700     0.520767     0.054267
Oz_37      1.0     0.850700     0.520767     0.387600
Oz_37      1.0     0.850700     0.520767     0.720933
Oz_37      1.0     0.850700     0.854100     0.054267
Oz_37      1.0     0.850700     0.854100     0.387600
Oz_37      1.0     0.850700     0.854100     0.720933
Oz_38      1.0     0.329450     0.249533     0.099900
Oz_38      1.0     0.329450     0.249533     0.433233
Oz_38      1.0     0.329450     0.249533     0.766567
Oz_38      1.0     0.329450     0.582867     0.099900
Oz_38      1.0     0.329450     0.582867     0.433233
Oz_38      1.0     0.329450     0.582867     0.766567
Oz_38      1.0     0.329450     0.916200     0.099900
Oz_38      1.0     0.329450     0.916200     0.433233
Oz_38      1.0     0.329450     0.916200     0.766567
Oz_38      1.0     0.829450     0.249533     0.099900
Oz_38      1.0     0.829450     0.249533     0.433233
Oz_38      1.0     0.829450     0.249533     0.766567
Oz_38      1.0     0.829450     0.582867     0.099900
Oz_38      1.0     0.829450     0.582867     0.433233
Oz_38      1.0     0.829450     0.582867     0.766567
Oz_38      1.0     0.829450     0.916200     0.099900
Oz_38      1.0     0.829450     0.916200     0.433233
Oz_38      1.0     0.829450     0.916200     0.766567
Oz_39      1.0     0.286250     0.172800     0.111667
Oz_39      1.0     0.286250     0.172800     0.445000
Oz_39      1.0     0.286250     0.172800     0.778333
Oz_39      1.0     0.286250     0.506133     0.111667
Oz_39      1.0     0.286250     0.506133     0.445000
Oz_39      1.0     0.286250     0.506133     0.778333
Oz_39      1.0     0.286250     0.839467     0.111667
Oz_39      1.0     0.286250     0.839467     0.445000
Oz_39      1.0     0.286250     0.839467     0.778333
Oz_39      1.0     0.786250     0.172800     0.111667
Oz_39      1.0     0.786250     0.172800     0.445000
Oz_39      1.0     0.786250     0.172800     0.778333
Oz_39      1.0     0.786250     0.506133     0.111667
Oz_39      1.0     0.786250     0.506133     0.445000
Oz_39      1.0     0.786250     0.506133     0.778333
Oz_39      1.0     0.786250     0.839467     0.111667
Oz_39      1.0     0.786250     0.839467     0.445000
Oz_39      1.0     0.786250     0.839467     0.778333
Oz_40      1.0     0.394400     0.208733     0.150433
Oz_40      1.0     0.394400     0.208733     0.483767
Oz_40      1.0     0.394400     0.208733     0.817100
Oz_40      1.0     0.394400     0.542067     0.150433
Oz_40      1.0     0.394400     0.542067     0.483767
Oz_40      1.0     0.394400     0.542067     0.817100
Oz_40      1.0     0.394400     0.875400     0.150433
Oz_40      1.0     0.394400     0.875400     0.483767
Oz_40      1.0     0.394400     0.875400     0.817100
Oz_40      1.0     0.894400     0.208733     0.150433
Oz_40      1.0     0.894400     0.208733     0.483767
Oz_40      1.0     0.894400     0.208733     0.817100
Oz_40      1.0     0.894400     0.542067     0.150433
Oz_40      1.0     0.894400     0.542067     0.483767
Oz_40      1.0     0.894400     0.542067     0.817100
Oz_40      1.0     0.894400     0.875400     0.150433
Oz_40      1.0     0.894400     0.875400     0.483767
Oz_40      1.0     0.894400     0.875400     0.817100
Oz_41      1.0     0.434400     0.144367     0.166967
Oz_41      1.0     0.434400     0.144367     0.500300
Oz_41      1.0     0.434400     0.144367     0.833633
Oz_41      1.0     0.434400     0.477700     0.166967
Oz_41      1.0     0.434400     0.477700     0.500300
Oz_41      1.0     0.434400     0.477700     0.833633
Oz_41      1.0     0.434400     0.811033     0.166967
Oz_41      1.0     0.434400     0.811033     0.500300
Oz_41      1.0     0.434400     0.811033     0.833633
Oz_41      1.0     0.934400     0.144367     0.166967
Oz_41      1.0     0.934400     0.144367     0.500300
Oz_41      1.0     0.934400     0.144367     0.833633
Oz_41      1.0     0.934400     0.477700     0.166967
Oz_41      1.0     0.934400     0.477700     0.500300
Oz_41      1.0     0.934400     0.477700     0.833633
Oz_41      1.0     0.934400     0.811033     0.166967
Oz_41      1.0     0.934400     0.811033     0.500300
Oz_41      1.0     0.934400     0.811033     0.833633
Oz_42      1.0     0.499400     0.217933     0.203433
Oz_42      1.0     0.499400     0.217933     0.536767
Oz_42      1.0     0.499400     0.217933     0.870100
Oz_42      1.0     0.499400     0.551267     0.203433
Oz_42      1.0     0.499400     0.551267     0.536767
Oz_42      1.0     0.499400     0.551267     0.870100
Oz_42      1.0     0.499400     0.884600     0.203433
Oz_42      1.0     0.499400     0.884600     0.536767
Oz_42      1.0     0.499400     0.884600     0.870100
Oz_42      1.0     0.999400     0.217933     0.203433
Oz_42      1.0     0.999400     0.217933     0.536767
Oz_42      1.0     0.999400     0.217933     0.870100
Oz_42      1.0     0.999400     0.551267     0.203433
Oz_42      1.0     0.999400     0.551267     0.536767
Oz_42      1.0     0.999400     0.551267     0.870100
Oz_42      1.0     0.999400     0.884600     0.203433
Oz_42      1.0     0.999400     0.884600     0.536767
Oz_42      1.0     0.999400     0.884600     0.870100
Oz_43      1.0     0.334300     0.328700     0.109600
Oz_43      1.0     0.334300     0.328700     0.442933
Oz_43      1.0     0.334300     0.328700     0.776267
Oz_43      1.0     0.334300     0.662033     0.109600
Oz_43      1.0     0.334300     0.662033     0.442933
Oz_43      1.0     0.334300     0.662033     0.776267
Oz_43      1.0     0.334300     0.995367     0.109600
Oz_43      1.0     0.334300     0.995367     0.442933
Oz_43      1.0     0.334300     0.995367     0.776267
Oz_43      1.0     0.834300     0.328700     0.109600
Oz_43      1.0     0.834300     0.328700     0.442933
Oz_43      1.0     0.834300     0.328700     0.776267
Oz_43      1.0     0.834300     0.662033     0.109600
Oz_43      1.0     0.834300     0.662033     0.442933
Oz_43      1.0     0.834300     0.662033     0.776267
Oz_43      1.0     0.834300     0.995367     0.109600
Oz_43      1.0     0.834300     0.995367     0.442933
Oz_43      1.0     0.834300     0.995367     0.776267
Oz_44      1.0     0.245350     0.275833     0.112967
Oz_44      1.0     0.245350     0.275833     0.446300
Oz_44      1.0     0.245350     0.275833     0.779633
Oz_44      1.0     0.245350     0.609167     0.112967
Oz_44      1.0     0.245350     0.609167     0.446300
Oz_44      1.0     0.245350     0.609167     0.779633
Oz_44      1.0     0.245350     0.942500     0.112967
Oz_44      1.0     0.245350     0.942500     0.446300
Oz_44      1.0     0.245350     0.942500     0.779633
Oz_44      1.0     0.745350     0.275833     0.112967
Oz_44      1.0     0.745350     0.275833     0.446300
Oz_44      1.0     0.745350     0.275833     0.779633
Oz_44      1.0     0.745350     0.609167     0.112967
Oz_44      1.0     0.745350     0.609167     0.446300
Oz_44      1.0     0.745350     0.609167     0.779633
Oz_44      1.0     0.745350     0.942500     0.112967
Oz_44      1.0     0.745350     0.942500     0.446300
Oz_44      1.0     0.745350     0.942500     0.779633
Oz_45      1.0     0.271450     0.282133     0.027733
Oz_45      1.0     0.271450     0.282133     0.361067
Oz_45      1.0     0.271450     0.282133     0.694400
Oz_45      1.0     0.271450     0.615467     0.027733
Oz_45      1.0     0.271450     0.615467     0.361067
Oz_45      1.0     0.271450     0.615467     0.694400
Oz_45      1.0     0.271450     0.948800     0.027733
Oz_45      1.0     0.271450     0.948800     0.361067
Oz_45      1.0     0.271450     0.948800     0.694400
Oz_45      1.0     0.771450     0.282133     0.027733
Oz_45      1.0     0.771450     0.282133     0.361067
Oz_45      1.0     0.771450     0.282133     0.694400
Oz_45      1.0     0.771450     0.615467     0.027733
Oz_45      1.0     0.771450     0.615467     0.361067
Oz_45      1.0     0.771450     0.615467     0.694400
Oz_45      1.0     0.771450     0.948800     0.027733
Oz_45      1.0     0.771450     0.948800     0.361067
Oz_45      1.0     0.771450     0.948800     0.694400
Oz_46      1.0     0.295350     0.050967     0.062367
Oz_46      1.0     0.295350     0.050967     0.395700
Oz_46      1.0     0.295350     0.050967     0.729033
Oz_46      1.0     0.295350     0.384300     0.062367
Oz_46      1.0     0.295350     0.384300     0.395700
Oz_46      1.0     0.295350     0.384300     0.729033
Oz_46      1.0     0.295350     0.717633     0.062367
Oz_46      1.0     0.295350     0.717633     0.395700
Oz_46      1.0     0.295350     0.717633     0.729033
Oz_46      1.0     0.795350     0.050967     0.062367
Oz_46      1.0     0.795350     0.050967     0.395700
Oz_46      1.0     0.795350     0.050967     0.729033
Oz_46      1.0     0.795350     0.384300     0.062367
Oz_46      1.0     0.795350     0.384300     0.395700
Oz_46      1.0     0.795350     0.384300     0.729033
Oz_46      1.0     0.795350     0.717633     0.062367
Oz_46      1.0     0.795350     0.717633     0.395700
Oz_46      1.0     0.795350     0.717633     0.729033
Oz_47      1.0     0.399300     0.069900     0.119167
Oz_47      1.0     0.399300     0.069900     0.452500
Oz_47      1.0     0.399300     0.069900     0.785833
Oz_47      1.0     0.399300     0.403233     0.119167
Oz_47      1.0     0.399300     0.403233     0.452500
Oz_47      1.0     0.399300     0.403233     0.785833
Oz_47      1.0     0.399300     0.736567     0.119167
Oz_47      1.0     0.399300     0.736567     0.452500
Oz_47      1.0     0.399300     0.736567     0.785833
Oz_47      1.0     0.899300     0.069900     0.119167
Oz_47      1.0     0.899300     0.069900     0.452500
Oz_47      1.0     0.899300     0.069900     0.785833
Oz_47      1.0     0.899300     0.403233     0.119167
Oz_47      1.0     0.899300     0.403233     0.452500
Oz_47      1.0     0.899300     0.403233     0.785833
Oz_47      1.0     0.899300     0.736567     0.119167
Oz_47      1.0     0.899300     0.736567     0.452500
Oz_47      1.0     0.899300     0.736567     0.785833
Oz_48      1.0     0.318200     0.056200     0.161267
Oz_48      1.0     0.318200     0.056200     0.494600
Oz_48      1.0     0.318200     0.056200     0.827933
Oz_48      1.0     0.318200     0.389533     0.161267
Oz_48      1.0     0.318200     0.389533     0.494600
Oz_48      1.0     0.318200     0.389533     0.827933
Oz_48      1.0     0.318200     0.722867     0.161267
Oz_48      1.0     0.318200     0.722867     0.494600
Oz_48      1.0     0.318200     0.722867     0.827933
Oz_48      1.0     0.818200     0.056200     0.161267
Oz_48      1.0     0.818200     0.056200     0.494600
Oz_48      1.0     0.818200     0.056200     0.827933
Oz_48      1.0     0.818200     0.389533     0.161267
Oz_48      1.0     0.818200     0.389533     0.494600
Oz_48      1.0     0.818200     0.389533     0.827933
Oz_48      1.0     0.818200     0.722867     0.161267
Oz_48      1.0     0.818200     0.722867     0.494600
Oz_48      1.0     0.818200     0.722867     0.827933
Oz_49      1.0     0.265350     0.229800     0.284200
Oz_49      1.0     0.265350     0.229800     0.617533
Oz_49      1.0     0.265350     0.229800     0.950867
Oz_49      1.0     0.265350     0.563133     0.284200
Oz_49      1.0     0.265350     0.563133     0.617533
Oz_49      1.0     0.265350     0.563133     0.950867
Oz_49      1.0     0.265350     0.896467     0.284200
Oz_49      1.0     0.265350     0.896467     0.617533
Oz_49      1.0     0.265350     0.896467     0.950867
Oz_49      1.0     0.765350     0.229800     0.284200
Oz_49      1.0     0.765350     0.229800     0.617533
Oz_49      1.0     0.765350     0.229800     0.950867
Oz_49      1.0     0.765350     0.563133     0.284200
Oz_49      1.0     0.765350     0.563133     0.617533
Oz_49      1.0     0.765350     0.563133     0.950867
Oz_49      1.0     0.765350     0.896467     0.284200
Oz_49      1.0     0.765350     0.896467     0.617533
Oz_49      1.0     0.765350     0.896467     0.950867
Oz_50      1.0     0.250400     0.228833     0.186400
Oz_50      1.0     0.250400     0.228833     0.519733
Oz_50      1.0     0.250400     0.228833     0.853067
Oz_50      1.0     0.250400     0.562167     0.186400
Oz_50      1.0     0.250400     0.562167     0.519733
Oz_50      1.0     0.250400     0.562167     0.853067
Oz_50      1.0     0.250400     0.895500     0.186400
Oz_50      1.0     0.250400     0.895500     0.519733
Oz_50      1.0     0.250400     0.895500     0.853067
Oz_50      1.0     0.750400     0.228833     0.186400
Oz_50      1.0     0.750400     0.228833     0.519733
Oz_50      1.0     0.750400     0.228833     0.853067
Oz_50      1.0     0.750400     0.562167     0.186400
Oz_50      1.0     0.750400     0.562167     0.519733
Oz_50      1.0     0.750400     0.562167     0.853067
Oz_50      1.0     0.750400     0.895500     0.186400
Oz_50      1.0     0.750400     0.895500     0.519733
Oz_50      1.0     0.750400     0.895500     0.853067
Siz_51     1.0     0.366000     0.165567     0.257133
Siz_51     1.0     0.366000     0.165567     0.590467
Siz_51     1.0     0.366000     0.165567     0.923800
Siz_51     1.0     0.366000     0.498900     0.257133
Siz_51     1.0     0.366000     0.498900     0.590467
Siz_51     1.0     0.366000     0.498900     0.923800
Siz_51     1.0     0.366000     0.832233     0.257133
Siz_51     1.0     0.366000     0.832233     0.590467
Siz_51     1.0     0.366000     0.832233     0.923800
Siz_51     1.0     0.866000     0.165567     0.257133
Siz_51     1.0     0.866000     0.165567     0.590467
Siz_51     1.0     0.866000     0.165567     0.923800
Siz_51     1.0     0.866000     0.498900     0.257133
Siz_51     1.0     0.866000     0.498900     0.590467
Siz_51     1.0     0.866000     0.498900     0.923800
Siz_51     1.0     0.866000     0.832233     0.257133
Siz_51     1.0     0.866000     0.832233     0.590467
Siz_51     1.0     0.866000     0.832233     0.923800
Siz_52     1.0     0.367700     0.150133     0.029733
Siz_52     1.0     0.367700     0.150133     0.363067
Siz_52     1.0     0.367700     0.150133     0.696400
Siz_52     1.0     0.367700     0.483467     0.029733
Siz_52     1.0     0.367700     0.483467     0.363067
Siz_52     1.0     0.367700     0.483467     0.696400
Siz_52     1.0     0.367700     0.816800     0.029733
Siz_52     1.0     0.367700     0.816800     0.363067
Siz_52     1.0     0.367700     0.816800     0.696400
Siz_52     1.0     0.867700     0.150133     0.029733
Siz_52     1.0     0.867700     0.150133     0.363067
Siz_52     1.0     0.867700     0.150133     0.696400
Siz_52     1.0     0.867700     0.483467     0.029733
Siz_52     1.0     0.867700     0.483467     0.363067
Siz_52     1.0     0.867700     0.483467     0.696400
Siz_52     1.0     0.867700     0.816800     0.029733
Siz_52     1.0     0.867700     0.816800     0.363067
Siz_52     1.0     0.867700     0.816800     0.696400
Siz_53     1.0     0.339500     0.204200     0.103800
Siz_53     1.0     0.339500     0.204200     0.437133
Siz_53     1.0     0.339500     0.204200     0.770467
Siz_53     1.0     0.339500     0.537533     0.103800
Siz_53     1.0     0.339500     0.537533     0.437133
Siz_53     1.0     0.339500     0.537533     0.770467
Siz_53     1.0     0.339500     0.870867     0.103800
Siz_53     1.0     0.339500     0.870867     0.437133
Siz_53     1.0     0.339500     0.870867     0.770467
Siz_53     1.0     0.839500     0.204200     0.103800
Siz_53     1.0     0.839500     0.204200     0.437133
Siz_53     1.0     0.839500     0.204200     0.770467
Siz_53     1.0     0.839500     0.537533     0.103800
Siz_53     1.0     0.839500     0.537533     0.437133
Siz_53     1.0     0.839500     0.537533     0.770467
Siz_53     1.0     0.839500     0.870867     0.103800
Siz_53     1.0     0.839500     0.870867     0.437133
Siz_53     1.0     0.839500     0.870867     0.770467
Siz_54     1.0     0.436950     0.189567     0.189833
Siz_54     1.0     0.436950     0.189567     0.523167
Siz_54     1.0     0.436950     0.189567     0.856500
Siz_54     1.0     0.436950     0.522900     0.189833
Siz_54     1.0     0.436950     0.522900     0.523167
Siz_54     1.0     0.436950     0.522900     0.856500
Siz_54     1.0     0.436950     0.856233     0.189833
Siz_54     1.0     0.436950     0.856233     0.523167
Siz_54     1.0     0.436950     0.856233     0.856500
Siz_54     1.0     0.936950     0.189567     0.189833
Siz_54     1.0     0.936950     0.189567     0.523167
Siz_54     1.0     0.936950     0.189567     0.856500
Siz_54     1.0     0.936950     0.522900     0.189833
Siz_54     1.0     0.936950     0.522900     0.523167
Siz_54     1.0     0.936950     0.522900     0.856500
Siz_54     1.0     0.936950     0.856233     0.189833
Siz_54     1.0     0.936950     0.856233     0.523167
Siz_54     1.0     0.936950     0.856233     0.856500
Siz_55     1.0     0.294750     0.283567     0.087767
Siz_55     1.0     0.294750     0.283567     0.421100
Siz_55     1.0     0.294750     0.283567     0.754433
Siz_55     1.0     0.294750     0.616900     0.087767
Siz_55     1.0     0.294750     0.616900     0.421100
Siz_55     1.0     0.294750     0.616900     0.754433
Siz_55     1.0     0.294750     0.950233     0.087767
Siz_55     1.0     0.294750     0.950233     0.421100
Siz_55     1.0     0.294750     0.950233     0.754433
Siz_55     1.0     0.794750     0.283567     0.087767
Siz_55     1.0     0.794750     0.283567     0.421100
Siz_55     1.0     0.794750     0.283567     0.754433
Siz_55     1.0     0.794750     0.616900     0.087767
Siz_55     1.0     0.794750     0.616900     0.421100
Siz_55     1.0     0.794750     0.616900     0.754433
Siz_55     1.0     0.794750     0.950233     0.087767
Siz_55     1.0     0.794750     0.950233     0.421100
Siz_55     1.0     0.794750     0.950233     0.754433
Siz_56     1.0     0.337250     0.043600     0.113800
Siz_56     1.0     0.337250     0.043600     0.447133
Siz_56     1.0     0.337250     0.043600     0.780467
Siz_56     1.0     0.337250     0.376933     0.113800
Siz_56     1.0     0.337250     0.376933     0.447133
Siz_56     1.0     0.337250     0.376933     0.780467
Siz_56     1.0     0.337250     0.710267     0.113800
Siz_56     1.0     0.337250     0.710267     0.447133
Siz_56     1.0     0.337250     0.710267     0.780467
Siz_56     1.0     0.837250     0.043600     0.113800
Siz_56     1.0     0.837250     0.043600     0.447133
Siz_56     1.0     0.837250     0.043600     0.780467
Siz_56     1.0     0.837250     0.376933     0.113800
Siz_56     1.0     0.837250     0.376933     0.447133
Siz_56     1.0     0.837250     0.376933     0.780467
Siz_56     1.0     0.837250     0.710267     0.113800
Siz_56     1.0     0.837250     0.710267     0.447133
Siz_56     1.0     0.837250     0.710267     0.780467
Siz_57     1.0     0.436950     0.115700     0.121133
Siz_57     1.0     0.436950     0.115700     0.454467
Siz_57     1.0     0.436950     0.115700     0.787800
Siz_57     1.0     0.436950     0.449033     0.121133
Siz_57     1.0     0.436950     0.449033     0.454467
Siz_57     1.0     0.436950     0.449033     0.787800
Siz_57     1.0     0.436950     0.782367     0.121133
Siz_57     1.0     0.436950     0.782367     0.454467
Siz_57     1.0     0.436950     0.782367     0.787800
Siz_57     1.0     0.936950     0.115700     0.121133
Siz_57     1.0     0.936950     0.115700     0.454467
Siz_57     1.0     0.936950     0.115700     0.787800
Siz_57     1.0     0.936950     0.449033     0.121133
Siz_57     1.0     0.936950     0.449033     0.454467
Siz_57     1.0     0.936950     0.449033     0.787800
Siz_57     1.0     0.936950     0.782367     0.121133
Siz_57     1.0     0.936950     0.782367     0.454467
Siz_57     1.0     0.936950     0.782367     0.787800
Siz_58     1.0     0.262300     0.202967     0.233767
Siz_58     1.0     0.262300     0.202967     0.567100
Siz_58     1.0     0.262300     0.202967     0.900433
Siz_58     1.0     0.262300     0.536300     0.233767
Siz_58     1.0     0.262300     0.536300     0.567100
Siz_58     1.0     0.262300     0.536300     0.900433
Siz_58     1.0     0.262300     0.869633     0.233767
Siz_58     1.0     0.262300     0.869633     0.567100
Siz_58     1.0     0.262300     0.869633     0.900433
Siz_58     1.0     0.762300     0.202967     0.233767
Siz_58     1.0     0.762300     0.202967     0.567100
Siz_58     1.0     0.762300     0.202967     0.900433
Siz_58     1.0     0.762300     0.536300     0.233767
Siz_58     1.0     0.762300     0.536300     0.567100
Siz_58     1.0     0.762300     0.536300     0.900433
Siz_58     1.0     0.762300     0.869633     0.233767
Siz_58     1.0     0.762300     0.869633     0.567100
Siz_58     1.0     0.762300     0.869633     0.900433
Siz_59     1.0     0.268100     0.079333     0.023467
Siz_59     1.0     0.268100     0.079333     0.356800
Siz_59     1.0     0.268100     0.079333     0.690133
Siz_59     1.0     0.268100     0.412667     0.023467
Siz_59     1.0     0.268100     0.412667     0.356800
Siz_59     1.0     0.268100     0.412667     0.690133
Siz_59     1.0     0.268100     0.746000     0.023467
Siz_59     1.0     0.268100     0.746000     0.356800
Siz_59     1.0     0.268100     0.746000     0.690133
Siz_59     1.0     0.768100     0.079333     0.023467
Siz_59     1.0     0.768100     0.079333     0.356800
Siz_59     1.0     0.768100     0.079333     0.690133
Siz_59     1.0     0.768100     0.412667     0.023467
Siz_59     1.0     0.768100     0.412667     0.356800
Siz_59     1.0     0.768100     0.412667     0.690133
Siz_59     1.0     0.768100     0.746000     0.023467
Siz_59     1.0     0.768100     0.746000     0.356800
Siz_59     1.0     0.768100     0.746000     0.690133
Siz_60     1.0     0.289850     0.084367     0.188833
Siz_60     1.0     0.289850     0.084367     0.522167
Siz_60     1.0     0.289850     0.084367     0.855500
Siz_60     1.0     0.289850     0.417700     0.188833
Siz_60     1.0     0.289850     0.417700     0.522167
Siz_60     1.0     0.289850     0.417700     0.855500
Siz_60     1.0     0.289850     0.751033     0.188833
Siz_60     1.0     0.289850     0.751033     0.522167
Siz_60     1.0     0.289850     0.751033     0.855500
Siz_60     1.0     0.789850     0.084367     0.188833
Siz_60     1.0     0.789850     0.084367     0.522167
Siz_60     1.0     0.789850     0.084367     0.855500
Siz_60     1.0     0.789850     0.417700     0.188833
Siz_60     1.0     0.789850     0.417700     0.522167
Siz_60     1.0     0.789850     0.417700     0.855500
Siz_60     1.0     0.789850     0.751033     0.188833
Siz_60     1.0     0.789850     0.751033     0.522167
Siz_60     1.0     0.789850     0.751033     0.855500
